Invalid MIT-MAGIC-COOKIE-1 key/*---------------------------------------------------------------------------*\
| =========                 |                                                 |
| \\      /  F ield         | OpenFOAM: The Open Source CFD Toolbox           |
|  \\    /   O peration     | Version:  v2012                                 |
|   \\  /    A nd           | Website:  www.openfoam.com                      |
|    \\/     M anipulation  |                                                 |
\*---------------------------------------------------------------------------*/
Build  : _7bdb509494-20201222 OPENFOAM=2012
Arch   : "LSB;label=32;scalar=64"
Exec   : interFoam -parallel
Date   : Jul 21 2021
Time   : 16:50:55
Host   : federico-pc
PID    : 18976
I/O    : uncollated
Case   : /home/federico/OpenFOAM/federico-v2012/run/0
nProcs : 6
Hosts  :
(
    (federico-pc 6)
)
Pstream initialized with:
    floatTransfer      : 0
    nProcsSimpleSum    : 0
    commsType          : nonBlocking
    polling iterations : 0
trapFpe: Floating point exception trapping enabled (FOAM_SIGFPE).
fileModificationChecking : Monitoring run-time modified files using timeStampMaster (fileModificationSkew 5, maxFileModificationPolls 20)
allowSystemOperations : Allowing user-supplied system call operations

// * * * * * * * * * * * * * * * * * * * * * * * * * * * * * * * * * * * * * //
Create time

Create mesh for time = 0

Selecting dynamicFvMesh dynamicMotionSolverFvMesh
Selecting motion solver: rigidBodyMotion
Applying solid body motion to entire mesh
Selecting rigidBodySolver Newmark

PIMPLE: no residual control data found. Calculations will employ 2 corrector loops

Reading field p_rgh

Reading field U

Reading/calculating face flux field phi

Reading transportProperties

Selecting incompressible transport model Newtonian
Selecting incompressible transport model Newtonian
Selecting turbulence model type RAS
Selecting RAS turbulence model kOmegaSST
Selecting patchDistMethod meshWave
RAS
{
    RASModel        kOmegaSST;
    turbulence      on;
    printCoeffs     on;
    alphaK1         0.85;
    alphaK2         1;
    alphaOmega1     0.5;
    alphaOmega2     0.856;
    gamma1          0.555556;
    gamma2          0.44;
    beta1           0.075;
    beta2           0.0828;
    betaStar        0.09;
    a1              0.31;
    b1              1;
    c1              10;
    F3              false;
    decayControl    false;
    kInf            0;
    omegaInf        0;
}


Reading g

Reading hRef
Calculating field g.h

No MRF models present

No finite volume options present
GAMG:  Solving for pcorr, Initial residual = 1, Final residual = 0.000618134, No Iterations 5
time step continuity errors : sum local = 4.50665e-07, global = 4.37104e-07, cumulative = 4.37104e-07
Constructing face velocity Uf

Courant Number mean: 0.0526727 max: 50.9515
forces forces:
    Not including porosity effects


Starting time loop

Courant Number mean: 0.0526727 max: 50.9515
Interface Courant Number mean: 0.000267288 max: 19.8187
deltaT = 0.00769231
Time = 0.00769231

PIMPLE: iteration 1
forces forces:
    rho: rho
    Not including porosity effects

Rigid-body motion of the hull
    Centre of rotation: (0 0 -2.68231e-05)
    Orientation: (1 0 -7.38115e-06 0 1 0 7.38115e-06 0 1)
    Linear velocity: (-6.61744e-24 0 -0.00697399)
    Angular velocity: (0 0.0019191 0)
GAMG:  Solving for pcorr, Initial residual = 1, Final residual = 0.000627219, No Iterations 5
time step continuity errors : sum local = 3.51755e-07, global = 3.40684e-07, cumulative = 7.77788e-07
smoothSolver:  Solving for alpha.water, Initial residual = 1.69587e-05, Final residual = 7.46856e-11, No Iterations 5
Phase-1 volume fraction = 0.795087  Min(alpha.water) = -3.7161e-39  Max(alpha.water) = 1.00071
MULES: Correcting alpha.water
MULES: Correcting alpha.water
MULES: Correcting alpha.water
Phase-1 volume fraction = 0.795087  Min(alpha.water) = -0.00116585  Max(alpha.water) = 1.00071
GAMG:  Solving for p_rgh, Initial residual = 0.0282487, Final residual = 4.10859e-08, No Iterations 11
time step continuity errors : sum local = 8.62315e-10, global = -3.82559e-10, cumulative = 7.77405e-07
GAMG:  Solving for p_rgh, Initial residual = 0.00165023, Final residual = 4.31311e-08, No Iterations 9
time step continuity errors : sum local = 8.85977e-10, global = -2.40247e-10, cumulative = 7.77165e-07
PIMPLE: iteration 2
smoothSolver:  Solving for alpha.water, Initial residual = 1.89348e-05, Final residual = 9.46845e-11, No Iterations 5
Phase-1 volume fraction = 0.795087  Min(alpha.water) = -4.06814e-11  Max(alpha.water) = 1
Applying the previous iteration compression flux
MULES: Correcting alpha.water
MULES: Correcting alpha.water
MULES: Correcting alpha.water
MULES: Correcting alpha.water
Phase-1 volume fraction = 0.795087  Min(alpha.water) = -0.00227142  Max(alpha.water) = 1.00053
GAMG:  Solving for p_rgh, Initial residual = 0.00257871, Final residual = 2.35963e-08, No Iterations 8
time step continuity errors : sum local = 4.84444e-10, global = -1.81285e-10, cumulative = 7.76983e-07
GAMG:  Solving for p_rgh, Initial residual = 0.00334822, Final residual = 2.39799e-08, No Iterations 8
time step continuity errors : sum local = 4.9183e-10, global = -1.69912e-10, cumulative = 7.76814e-07
smoothSolver:  Solving for omega, Initial residual = 8.3325e-06, Final residual = 6.27314e-08, No Iterations 3
bounding omega, min: -16.686 max: 186533 average: 142.506
smoothSolver:  Solving for k, Initial residual = 0.000253294, Final residual = 8.93057e-08, No Iterations 8
bounding k, min: -0.0226823 max: 2.75764 average: 0.219621
ExecutionTime = 11.59 s  ClockTime = 12 s

forces forces write:
    Sum of forces
        Total    : (183.133 410.329 749.769)
        Pressure : (125.244 414.302 750.955)
        Viscous  : (57.8894 -3.9727 -1.18684)
    Sum of moments
        Total    : (29.0824 4613.78 -2743.28)
        Pressure : (29.1118 4642.11 -2784.64)
        Viscous  : (-0.0293628 -28.3348 41.3608)


Courant Number mean: 0.0405043 max: 23.9457
Interface Courant Number mean: 0.000200156 max: 15.3707
deltaT = 0.00769231
Time = 0.0153846

PIMPLE: iteration 1
forces forces:
    rho: rho
    Not including porosity effects

Rigid-body motion of the hull
    Centre of rotation: (0 0 -0.000155895)
    Orientation: (1 0 -4.26417e-05 0 1 0 4.26417e-05 0 1)
    Linear velocity: (0 0 -0.0265847)
    Angular velocity: (0 0.00724864 0)
GAMG:  Solving for pcorr, Initial residual = 1, Final residual = 0.000768266, No Iterations 4
time step continuity errors : sum local = 3.06448e-08, global = 6.93431e-10, cumulative = 7.77507e-07
smoothSolver:  Solving for alpha.water, Initial residual = 1.68652e-05, Final residual = 7.54293e-11, No Iterations 5
Phase-1 volume fraction = 0.795088  Min(alpha.water) = -5.04125e-08  Max(alpha.water) = 1.00049
Applying the previous iteration compression flux
MULES: Correcting alpha.water
MULES: Correcting alpha.water
MULES: Correcting alpha.water
MULES: Correcting alpha.water
Phase-1 volume fraction = 0.795088  Min(alpha.water) = -0.000642673  Max(alpha.water) = 1.00049
GAMG:  Solving for p_rgh, Initial residual = 0.013352, Final residual = 2.65099e-08, No Iterations 11
time step continuity errors : sum local = 5.40116e-10, global = -1.04836e-10, cumulative = 7.77402e-07
GAMG:  Solving for p_rgh, Initial residual = 0.00449498, Final residual = 2.60315e-08, No Iterations 9
time step continuity errors : sum local = 4.99227e-10, global = -5.11271e-11, cumulative = 7.77351e-07
PIMPLE: iteration 2
smoothSolver:  Solving for alpha.water, Initial residual = 1.88487e-05, Final residual = 8.65903e-11, No Iterations 5
Phase-1 volume fraction = 0.795088  Min(alpha.water) = -4.30443e-06  Max(alpha.water) = 1
Applying the previous iteration compression flux
MULES: Correcting alpha.water
MULES: Correcting alpha.water
MULES: Correcting alpha.water
MULES: Correcting alpha.water
Phase-1 volume fraction = 0.795088  Min(alpha.water) = -0.00142455  Max(alpha.water) = 1.00021
GAMG:  Solving for p_rgh, Initial residual = 0.0053736, Final residual = 4.99612e-08, No Iterations 7
time step continuity errors : sum local = 9.77894e-10, global = -3.71941e-10, cumulative = 7.76979e-07
GAMG:  Solving for p_rgh, Initial residual = 0.0063756, Final residual = 4.0118e-08, No Iterations 7
time step continuity errors : sum local = 7.86998e-10, global = -5.28834e-11, cumulative = 7.76926e-07
smoothSolver:  Solving for omega, Initial residual = 7.41339e-06, Final residual = 3.76823e-08, No Iterations 3
bounding omega, min: -4239.86 max: 13897.1 average: 135.773
smoothSolver:  Solving for k, Initial residual = 0.000102601, Final residual = 8.18621e-08, No Iterations 8
ExecutionTime = 20.19 s  ClockTime = 20 s

forces forces write:
    Sum of forces
        Total    : (162.506 433.222 1065.93)
        Pressure : (106.256 437.124 1067.11)
        Viscous  : (56.2502 -3.90225 -1.18602)
    Sum of moments
        Total    : (-18.0626 6175.83 -2797.39)
        Pressure : (-18.0118 6203.71 -2837.72)
        Viscous  : (-0.0508164 -27.8864 40.3321)


Courant Number mean: 0.0405102 max: 21.981
Interface Courant Number mean: 0.000193905 max: 11.66
deltaT = 0.00846154
Time = 0.0238462

PIMPLE: iteration 1
forces forces:
    rho: rho
    Not including porosity effects

Rigid-body motion of the hull
    Centre of rotation: (0 0 -0.000508967)
    Orientation: (1 0 -0.00014058 0 1 0 0.00014058 0 1)
    Linear velocity: (0 0 -0.0568686)
    Angular velocity: (0 0.0159004 0)
GAMG:  Solving for pcorr, Initial residual = 1, Final residual = 0.000965022, No Iterations 4
time step continuity errors : sum local = 5.08607e-08, global = 9.43905e-10, cumulative = 7.7787e-07
smoothSolver:  Solving for alpha.water, Initial residual = 1.85408e-05, Final residual = 4.33807e-11, No Iterations 6
Phase-1 volume fraction = 0.795088  Min(alpha.water) = -4.05064e-06  Max(alpha.water) = 1.00092
Applying the previous iteration compression flux
MULES: Correcting alpha.water
MULES: Correcting alpha.water
MULES: Correcting alpha.water
MULES: Correcting alpha.water
Phase-1 volume fraction = 0.795088  Min(alpha.water) = -0.00189112  Max(alpha.water) = 1.00092
GAMG:  Solving for p_rgh, Initial residual = 0.0103919, Final residual = 4.60629e-08, No Iterations 10
time step continuity errors : sum local = 1.08596e-09, global = -2.38513e-10, cumulative = 7.77632e-07
GAMG:  Solving for p_rgh, Initial residual = 0.00658742, Final residual = 3.29655e-08, No Iterations 10
time step continuity errors : sum local = 7.31239e-10, global = 1.61949e-10, cumulative = 7.77794e-07
PIMPLE: iteration 2
smoothSolver:  Solving for alpha.water, Initial residual = 2.0771e-05, Final residual = 4.42719e-11, No Iterations 6
Phase-1 volume fraction = 0.795088  Min(alpha.water) = -3.13263e-07  Max(alpha.water) = 1
Applying the previous iteration compression flux
MULES: Correcting alpha.water
MULES: Correcting alpha.water
MULES: Correcting alpha.water
MULES: Correcting alpha.water
Phase-1 volume fraction = 0.795088  Min(alpha.water) = -0.00107108  Max(alpha.water) = 1.00048
GAMG:  Solving for p_rgh, Initial residual = 0.00760087, Final residual = 3.07698e-08, No Iterations 9
time step continuity errors : sum local = 7.09543e-10, global = -1.10417e-10, cumulative = 7.77683e-07
GAMG:  Solving for p_rgh, Initial residual = 0.00877751, Final residual = 4.22961e-08, No Iterations 9
time step continuity errors : sum local = 9.81581e-10, global = 2.03712e-10, cumulative = 7.77887e-07
smoothSolver:  Solving for omega, Initial residual = 0.999995, Final residual = 8.27692e-08, No Iterations 26
smoothSolver:  Solving for k, Initial residual = 0.991739, Final residual = 8.00954e-10, No Iterations 1
bounding k, min: -5.74991e-06 max: 2.76296 average: 0.207205
ExecutionTime = 29.26 s  ClockTime = 29 s

forces forces write:
    Sum of forces
        Total    : (153.096 448.683 1248.42)
        Pressure : (99.1105 452.195 1249.67)
        Viscous  : (53.9859 -3.5124 -1.25418)
    Sum of moments
        Total    : (-41.2351 7029.96 -2865.34)
        Pressure : (-41.2286 7057.88 -2902.15)
        Viscous  : (-0.00644841 -27.9247 36.8152)


Courant Number mean: 0.0445743 max: 23.0523
Interface Courant Number mean: 0.000208236 max: 12.0543
deltaT = 0.00951923
Time = 0.0333654

PIMPLE: iteration 1
forces forces:
    rho: rho
    Not including porosity effects

Rigid-body motion of the hull
    Centre of rotation: (0 0 -0.00122726)
    Orientation: (1 0 -0.000348187 0 1 0 0.000348187 0 1)
    Linear velocity: (0 0 -0.0940449)
    Angular velocity: (0 0.0277181 0)
GAMG:  Solving for pcorr, Initial residual = 1, Final residual = 0.000524176, No Iterations 5
time step continuity errors : sum local = 3.75884e-08, global = -3.19157e-10, cumulative = 7.77568e-07
smoothSolver:  Solving for alpha.water, Initial residual = 2.08984e-05, Final residual = 8.16126e-11, No Iterations 6
Phase-1 volume fraction = 0.795088  Min(alpha.water) = -1.88219e-05  Max(alpha.water) = 1.00043
Applying the previous iteration compression flux
MULES: Correcting alpha.water
MULES: Correcting alpha.water
MULES: Correcting alpha.water
MULES: Correcting alpha.water
Phase-1 volume fraction = 0.795088  Min(alpha.water) = -0.00175832  Max(alpha.water) = 1.00043
GAMG:  Solving for p_rgh, Initial residual = 0.0132986, Final residual = 2.52903e-08, No Iterations 11
time step continuity errors : sum local = 7.37607e-10, global = -1.35966e-10, cumulative = 7.77432e-07
GAMG:  Solving for p_rgh, Initial residual = 0.0109971, Final residual = 4.0541e-08, No Iterations 10
time step continuity errors : sum local = 1.13682e-09, global = 2.48405e-10, cumulative = 7.7768e-07
PIMPLE: iteration 2
smoothSolver:  Solving for alpha.water, Initial residual = 2.34113e-05, Final residual = 7.81608e-11, No Iterations 6
Phase-1 volume fraction = 0.795088  Min(alpha.water) = -2.93621e-07  Max(alpha.water) = 1
Applying the previous iteration compression flux
MULES: Correcting alpha.water
MULES: Correcting alpha.water
MULES: Correcting alpha.water
MULES: Correcting alpha.water
Phase-1 volume fraction = 0.795088  Min(alpha.water) = -0.00191352  Max(alpha.water) = 1.00048
GAMG:  Solving for p_rgh, Initial residual = 0.0117138, Final residual = 3.54759e-08, No Iterations 9
time step continuity errors : sum local = 1.04235e-09, global = 1.53938e-10, cumulative = 7.77834e-07
GAMG:  Solving for p_rgh, Initial residual = 0.0126203, Final residual = 2.7823e-08, No Iterations 9
time step continuity errors : sum local = 8.22114e-10, global = 1.16036e-10, cumulative = 7.7795e-07
smoothSolver:  Solving for omega, Initial residual = 1, Final residual = 2.68905e-24, No Iterations 1
bounding omega, min: -5140.24 max: 13128.9 average: 146.664
smoothSolver:  Solving for k, Initial residual = 0.000112541, Final residual = 9.94247e-08, No Iterations 9
bounding k, min: -0.0140042 max: 2.75707 average: 0.205521
ExecutionTime = 38.19 s  ClockTime = 38 s

forces forces write:
    Sum of forces
        Total    : (128.381 382.123 1250.01)
        Pressure : (76.0296 385.438 1251.31)
        Viscous  : (52.3515 -3.31436 -1.30127)
    Sum of moments
        Total    : (-56.1531 6896.05 -2416.52)
        Pressure : (-56.152 6924.03 -2451.26)
        Viscous  : (-0.00113279 -27.9747 34.7422)


Courant Number mean: 0.0501793 max: 26.2521
Interface Courant Number mean: 0.000228783 max: 13.4219
deltaT = 0.0111058
Time = 0.0444712

PIMPLE: iteration 1
forces forces:
    rho: rho
    Not including porosity effects

Rigid-body motion of the hull
    Centre of rotation: (0 0 -0.00251007)
    Orientation: (1 0 -0.00073907 0 1 0 0.00073907 0 1)
    Linear velocity: (0 0 -0.136973)
    Angular velocity: (0 0.0426746 0)
GAMG:  Solving for pcorr, Initial residual = 1, Final residual = 0.000831099, No Iterations 4
time step continuity errors : sum local = 9.19987e-08, global = 1.1062e-09, cumulative = 7.79056e-07
smoothSolver:  Solving for alpha.water, Initial residual = 2.45078e-05, Final residual = 8.09228e-11, No Iterations 7
Phase-1 volume fraction = 0.795088  Min(alpha.water) = -1.96476e-06  Max(alpha.water) = 1.00152
Applying the previous iteration compression flux
MULES: Correcting alpha.water
MULES: Correcting alpha.water
MULES: Correcting alpha.water
MULES: Correcting alpha.water
Phase-1 volume fraction = 0.795088  Min(alpha.water) = -0.00319736  Max(alpha.water) = 1.00149
GAMG:  Solving for p_rgh, Initial residual = 0.0176443, Final residual = 3.87538e-08, No Iterations 10
time step continuity errors : sum local = 1.53735e-09, global = 2.18359e-10, cumulative = 7.79275e-07
GAMG:  Solving for p_rgh, Initial residual = 0.0136525, Final residual = 2.5873e-08, No Iterations 11
time step continuity errors : sum local = 9.95926e-10, global = 1.32479e-10, cumulative = 7.79407e-07
PIMPLE: iteration 2
smoothSolver:  Solving for alpha.water, Initial residual = 2.73872e-05, Final residual = 7.25082e-11, No Iterations 7
Phase-1 volume fraction = 0.795088  Min(alpha.water) = -2.38991e-07  Max(alpha.water) = 1
Applying the previous iteration compression flux
MULES: Correcting alpha.water
MULES: Correcting alpha.water
MULES: Correcting alpha.water
MULES: Correcting alpha.water
Phase-1 volume fraction = 0.795088  Min(alpha.water) = -0.00301093  Max(alpha.water) = 1.00075
GAMG:  Solving for p_rgh, Initial residual = 0.0143265, Final residual = 3.51473e-08, No Iterations 10
time step continuity errors : sum local = 1.40069e-09, global = -1.47122e-10, cumulative = 7.7926e-07
GAMG:  Solving for p_rgh, Initial residual = 0.0145668, Final residual = 3.05264e-08, No Iterations 10
time step continuity errors : sum local = 1.22178e-09, global = 1.21692e-10, cumulative = 7.79382e-07
smoothSolver:  Solving for omega, Initial residual = 1, Final residual = 9.50578e-08, No Iterations 15
smoothSolver:  Solving for k, Initial residual = 0.35585, Final residual = 1.55384e-11, No Iterations 1
bounding k, min: -0.0360423 max: 2.74843 average: 0.179124
ExecutionTime = 47.27 s  ClockTime = 47 s

forces forces write:
    Sum of forces
        Total    : (120.621 361.334 1189.08)
        Pressure : (69.6442 364.452 1190.45)
        Viscous  : (50.9772 -3.11799 -1.37286)
    Sum of moments
        Total    : (-52.1121 6510.97 -2280.54)
        Pressure : (-52.1283 6539.21 -2313.28)
        Viscous  : (0.0161366 -28.238 32.736)


Courant Number mean: 0.0585811 max: 30.9065
Interface Courant Number mean: 0.000260638 max: 16.7605
deltaT = 0.00925481
Time = 0.053726

PIMPLE: iteration 1
forces forces:
    rho: rho
    Not including porosity effects

Rigid-body motion of the hull
    Centre of rotation: (0 0 -0.00393763)
    Orientation: (0.999999 0 -0.00119243 0 1 0 0.00119243 0 0.999999)
    Linear velocity: (0 0 -0.171527)
    Angular velocity: (0 0.0552983 0)
GAMG:  Solving for pcorr, Initial residual = 1, Final residual = 0.000769295, No Iterations 4
time step continuity errors : sum local = 8.94603e-08, global = 6.54772e-10, cumulative = 7.80036e-07
smoothSolver:  Solving for alpha.water, Initial residual = 2.05879e-05, Final residual = 8.19847e-11, No Iterations 6
Phase-1 volume fraction = 0.795088  Min(alpha.water) = -2.21301e-06  Max(alpha.water) = 1.00131
Applying the previous iteration compression flux
MULES: Correcting alpha.water
MULES: Correcting alpha.water
MULES: Correcting alpha.water
MULES: Correcting alpha.water
Phase-1 volume fraction = 0.795088  Min(alpha.water) = -0.00178048  Max(alpha.water) = 1.00127
GAMG:  Solving for p_rgh, Initial residual = 0.0206293, Final residual = 2.96e-08, No Iterations 11
time step continuity errors : sum local = 8.35094e-10, global = -1.18109e-10, cumulative = 7.79918e-07
GAMG:  Solving for p_rgh, Initial residual = 0.0124807, Final residual = 4.65462e-08, No Iterations 10
time step continuity errors : sum local = 1.29861e-09, global = 2.10055e-10, cumulative = 7.80128e-07
PIMPLE: iteration 2
smoothSolver:  Solving for alpha.water, Initial residual = 2.28541e-05, Final residual = 7.2926e-11, No Iterations 6
Phase-1 volume fraction = 0.795088  Min(alpha.water) = -1.1648e-06  Max(alpha.water) = 1
Applying the previous iteration compression flux
MULES: Correcting alpha.water
MULES: Correcting alpha.water
MULES: Correcting alpha.water
MULES: Correcting alpha.water
Phase-1 volume fraction = 0.795088  Min(alpha.water) = -0.00177262  Max(alpha.water) = 1.00021
GAMG:  Solving for p_rgh, Initial residual = 0.0138951, Final residual = 3.62262e-08, No Iterations 10
time step continuity errors : sum local = 1.02278e-09, global = -1.38728e-10, cumulative = 7.7999e-07
GAMG:  Solving for p_rgh, Initial residual = 0.0140186, Final residual = 3.86399e-08, No Iterations 10
time step continuity errors : sum local = 1.10057e-09, global = 1.44752e-10, cumulative = 7.80134e-07
smoothSolver:  Solving for omega, Initial residual = 0.999999, Final residual = 1.788e-19, No Iterations 1
bounding omega, min: -948655 max: 415141 average: 158.369
smoothSolver:  Solving for k, Initial residual = 0.000125512, Final residual = 7.51501e-08, No Iterations 9
bounding k, min: -0.010643 max: 2.74103 average: 0.176851
ExecutionTime = 56.24 s  ClockTime = 56 s

forces forces write:
    Sum of forces
        Total    : (106.932 340.835 1199.8)
        Pressure : (56.9985 343.776 1201.24)
        Viscous  : (49.9332 -2.94091 -1.44435)
    Sum of moments
        Total    : (-58.9263 6444.78 -2127.77)
        Pressure : (-58.9639 6473.38 -2158.74)
        Viscous  : (0.0376416 -28.5993 30.9634)


Courant Number mean: 0.0487925 max: 25.6198
Interface Courant Number mean: 0.000213892 max: 13.9459
deltaT = 0.00925481
Time = 0.0629808

PIMPLE: iteration 1
forces forces:
    rho: rho
    Not including porosity effects

Rigid-body motion of the hull
    Centre of rotation: (0 0 -0.00567654)
    Orientation: (0.999998 0 -0.00176065 0 1 0 0.00176065 0 0.999998)
    Linear velocity: (5.42101e-20 0 -0.204258)
    Angular velocity: (0 0.0674955 0)
GAMG:  Solving for pcorr, Initial residual = 1, Final residual = 0.000799636, No Iterations 4
time step continuity errors : sum local = 8.50601e-08, global = 7.38744e-10, cumulative = 7.80873e-07
smoothSolver:  Solving for alpha.water, Initial residual = 2.07042e-05, Final residual = 9.06381e-11, No Iterations 6
Phase-1 volume fraction = 0.795088  Min(alpha.water) = -7.11395e-07  Max(alpha.water) = 1.00114
Applying the previous iteration compression flux
MULES: Correcting alpha.water
MULES: Correcting alpha.water
MULES: Correcting alpha.water
MULES: Correcting alpha.water
Phase-1 volume fraction = 0.795088  Min(alpha.water) = -0.00174864  Max(alpha.water) = 1.0011
GAMG:  Solving for p_rgh, Initial residual = 0.0181179, Final residual = 2.59389e-08, No Iterations 11
time step continuity errors : sum local = 7.33034e-10, global = -1.18797e-10, cumulative = 7.80754e-07
GAMG:  Solving for p_rgh, Initial residual = 0.0175093, Final residual = 3.74147e-08, No Iterations 10
time step continuity errors : sum local = 1.04593e-09, global = 2.04505e-10, cumulative = 7.80959e-07
PIMPLE: iteration 2
smoothSolver:  Solving for alpha.water, Initial residual = 2.28622e-05, Final residual = 7.58858e-11, No Iterations 6
Phase-1 volume fraction = 0.795088  Min(alpha.water) = -1.72011e-08  Max(alpha.water) = 1
Applying the previous iteration compression flux
MULES: Correcting alpha.water
MULES: Correcting alpha.water
MULES: Correcting alpha.water
MULES: Correcting alpha.water
Phase-1 volume fraction = 0.795088  Min(alpha.water) = -0.0021429  Max(alpha.water) = 1.00036
GAMG:  Solving for p_rgh, Initial residual = 0.0184386, Final residual = 4.39275e-08, No Iterations 9
time step continuity errors : sum local = 1.24068e-09, global = -2.29105e-10, cumulative = 7.8073e-07
GAMG:  Solving for p_rgh, Initial residual = 0.019117, Final residual = 4.55462e-08, No Iterations 9
time step continuity errors : sum local = 1.30084e-09, global = 2.03287e-10, cumulative = 7.80933e-07
smoothSolver:  Solving for omega, Initial residual = 1, Final residual = 4.09166e-08, No Iterations 16
smoothSolver:  Solving for k, Initial residual = 0.0525454, Final residual = 3.93614e-12, No Iterations 1
bounding k, min: -0.00858904 max: 2.73606 average: 0.173136
ExecutionTime = 65.23 s  ClockTime = 65 s

forces forces write:
    Sum of forces
        Total    : (108.575 340.209 1167)
        Pressure : (59.4427 343.004 1168.51)
        Viscous  : (49.1328 -2.7951 -1.50696)
    Sum of moments
        Total    : (-55.3049 6297.99 -2128.27)
        Pressure : (-55.3631 6326.9 -2157.79)
        Viscous  : (0.0582053 -28.9051 29.522)


Courant Number mean: 0.0488381 max: 24.9804
Interface Courant Number mean: 0.00021091 max: 13.1161
deltaT = 0.00925481
Time = 0.0722356

PIMPLE: iteration 1
forces forces:
    rho: rho
    Not including porosity effects

Rigid-body motion of the hull
    Centre of rotation: (0 0 -0.00770946)
    Orientation: (0.999997 0 -0.00243884 0 1 0 0.00243884 0 0.999997)
    Linear velocity: (1.0842e-19 0 -0.235064)
    Angular velocity: (0 0.0790658 0)
GAMG:  Solving for pcorr, Initial residual = 1, Final residual = 0.0006505, No Iterations 4
time step continuity errors : sum local = 8.44913e-08, global = -9.83994e-11, cumulative = 7.80835e-07
smoothSolver:  Solving for alpha.water, Initial residual = 2.08327e-05, Final residual = 4.10792e-11, No Iterations 7
Phase-1 volume fraction = 0.795088  Min(alpha.water) = -2.64322e-06  Max(alpha.water) = 1.00105
Applying the previous iteration compression flux
MULES: Correcting alpha.water
MULES: Correcting alpha.water
MULES: Correcting alpha.water
MULES: Correcting alpha.water
Phase-1 volume fraction = 0.795088  Min(alpha.water) = -0.00224214  Max(alpha.water) = 1.00105
GAMG:  Solving for p_rgh, Initial residual = 0.024387, Final residual = 4.02885e-08, No Iterations 10
time step continuity errors : sum local = 1.13925e-09, global = -2.60685e-10, cumulative = 7.80574e-07
GAMG:  Solving for p_rgh, Initial residual = 0.0176492, Final residual = 4.15027e-08, No Iterations 10
time step continuity errors : sum local = 1.15646e-09, global = 2.351e-10, cumulative = 7.80809e-07
PIMPLE: iteration 2
smoothSolver:  Solving for alpha.water, Initial residual = 2.28886e-05, Final residual = 7.81206e-11, No Iterations 6
Phase-1 volume fraction = 0.795088  Min(alpha.water) = -4.89852e-08  Max(alpha.water) = 1
Applying the previous iteration compression flux
MULES: Correcting alpha.water
MULES: Correcting alpha.water
MULES: Correcting alpha.water
MULES: Correcting alpha.water
Phase-1 volume fraction = 0.795088  Min(alpha.water) = -0.00238116  Max(alpha.water) = 1.00029
GAMG:  Solving for p_rgh, Initial residual = 0.0187409, Final residual = 2.59963e-08, No Iterations 10
time step continuity errors : sum local = 7.32202e-10, global = -1.44674e-10, cumulative = 7.80664e-07
GAMG:  Solving for p_rgh, Initial residual = 0.0193078, Final residual = 2.77644e-08, No Iterations 10
time step continuity errors : sum local = 7.90618e-10, global = 1.55812e-10, cumulative = 7.8082e-07
smoothSolver:  Solving for omega, Initial residual = 0.999995, Final residual = 2.36907e-20, No Iterations 1
bounding omega, min: -1.85242e+07 max: 1.91174e+06 average: 80.3231
smoothSolver:  Solving for k, Initial residual = 0.000121888, Final residual = 6.45831e-08, No Iterations 9
bounding k, min: -0.0130374 max: 2.73698 average: 0.171355
ExecutionTime = 74.3 s  ClockTime = 74 s

forces forces write:
    Sum of forces
        Total    : (109.468 346.105 1196.66)
        Pressure : (61.0627 348.768 1198.21)
        Viscous  : (48.4054 -2.66269 -1.5521)
    Sum of moments
        Total    : (-59.8326 6443.33 -2163.73)
        Pressure : (-59.9043 6472.45 -2191.92)
        Viscous  : (0.0716667 -29.1177 28.1906)


Courant Number mean: 0.048836 max: 24.8019
Interface Courant Number mean: 0.000208559 max: 13.0853
deltaT = 0.00925481
Time = 0.0814904

PIMPLE: iteration 1
forces forces:
    rho: rho
    Not including porosity effects

Rigid-body motion of the hull
    Centre of rotation: (0 0 -0.0100209)
    Orientation: (0.999995 0 -0.003222 0 1 0 0.003222 0 0.999995)
    Linear velocity: (1.0842e-19 0 -0.264451)
    Angular velocity: (0 0.0901783 0)
GAMG:  Solving for pcorr, Initial residual = 1, Final residual = 0.000619984, No Iterations 4
time step continuity errors : sum local = 8.24672e-08, global = -5.81226e-11, cumulative = 7.80762e-07
smoothSolver:  Solving for alpha.water, Initial residual = 2.09574e-05, Final residual = 4.82279e-11, No Iterations 7
Phase-1 volume fraction = 0.795088  Min(alpha.water) = -2.85597e-07  Max(alpha.water) = 1.001
Applying the previous iteration compression flux
MULES: Correcting alpha.water
MULES: Correcting alpha.water
MULES: Correcting alpha.water
MULES: Correcting alpha.water
Phase-1 volume fraction = 0.795088  Min(alpha.water) = -0.00199093  Max(alpha.water) = 1.001
GAMG:  Solving for p_rgh, Initial residual = 0.0242909, Final residual = 4.23025e-08, No Iterations 10
time step continuity errors : sum local = 1.19294e-09, global = -2.52638e-10, cumulative = 7.80509e-07
GAMG:  Solving for p_rgh, Initial residual = 0.0203482, Final residual = 4.18321e-08, No Iterations 10
time step continuity errors : sum local = 1.15748e-09, global = 1.54215e-10, cumulative = 7.80664e-07
PIMPLE: iteration 2
smoothSolver:  Solving for alpha.water, Initial residual = 2.29126e-05, Final residual = 8.50557e-11, No Iterations 6
Phase-1 volume fraction = 0.795088  Min(alpha.water) = -1.37396e-08  Max(alpha.water) = 1
Applying the previous iteration compression flux
MULES: Correcting alpha.water
MULES: Correcting alpha.water
MULES: Correcting alpha.water
MULES: Correcting alpha.water
Phase-1 volume fraction = 0.795088  Min(alpha.water) = -0.00178999  Max(alpha.water) = 1.00034
GAMG:  Solving for p_rgh, Initial residual = 0.0213941, Final residual = 2.66146e-08, No Iterations 10
time step continuity errors : sum local = 7.43935e-10, global = -8.59749e-11, cumulative = 7.80578e-07
GAMG:  Solving for p_rgh, Initial residual = 0.0223497, Final residual = 2.81126e-08, No Iterations 10
time step continuity errors : sum local = 7.97444e-10, global = 9.71062e-11, cumulative = 7.80675e-07
smoothSolver:  Solving for omega, Initial residual = 1, Final residual = 2.70929e-08, No Iterations 15
bounding omega, min: -122260 max: 5.20206e+18 average: 4.97752e+14
smoothSolver:  Solving for k, Initial residual = 0.0133198, Final residual = 1.40738e-12, No Iterations 1
bounding k, min: -0.00508035 max: 2.73939 average: 0.164055
ExecutionTime = 83.37 s  ClockTime = 84 s

forces forces write:
    Sum of forces
        Total    : (108.923 356.016 1240.56)
        Pressure : (61.1852 358.576 1242.12)
        Viscous  : (47.7376 -2.56003 -1.55864)
    Sum of moments
        Total    : (-65.9112 6657.13 -2215.74)
        Pressure : (-65.9773 6686.23 -2242.79)
        Viscous  : (0.0661152 -29.0998 27.052)


Courant Number mean: 0.0488588 max: 24.7396
Interface Courant Number mean: 0.000206596 max: 12.5721
deltaT = 0.00925481
Time = 0.0907452

PIMPLE: iteration 1
forces forces:
    rho: rho
    Not including porosity effects

Rigid-body motion of the hull
    Centre of rotation: (0 0 -0.0125961)
    Orientation: (0.999992 0 -0.00410608 0 1 0 0.00410608 0 0.999992)
    Linear velocity: (-2.1684e-19 0 -0.292048)
    Angular velocity: (0 0.100875 0)
GAMG:  Solving for pcorr, Initial residual = 1, Final residual = 0.000509338, No Iterations 4
time step continuity errors : sum local = 7.39658e-08, global = -2.72203e-10, cumulative = 7.80403e-07
smoothSolver:  Solving for alpha.water, Initial residual = 2.10799e-05, Final residual = 5.81556e-11, No Iterations 7
Phase-1 volume fraction = 0.795088  Min(alpha.water) = -2.30812e-06  Max(alpha.water) = 1.00096
Applying the previous iteration compression flux
MULES: Correcting alpha.water
MULES: Correcting alpha.water
MULES: Correcting alpha.water
MULES: Correcting alpha.water
Phase-1 volume fraction = 0.795088  Min(alpha.water) = -0.00187198  Max(alpha.water) = 1.00096
GAMG:  Solving for p_rgh, Initial residual = 0.0278164, Final residual = 4.28731e-08, No Iterations 10
time step continuity errors : sum local = 1.20033e-09, global = -1.60737e-10, cumulative = 7.80242e-07
GAMG:  Solving for p_rgh, Initial residual = 0.0251512, Final residual = 3.41681e-08, No Iterations 10
time step continuity errors : sum local = 9.38361e-10, global = 1.93248e-10, cumulative = 7.80435e-07
PIMPLE: iteration 2
smoothSolver:  Solving for alpha.water, Initial residual = 2.29409e-05, Final residual = 9.49325e-11, No Iterations 6
Phase-1 volume fraction = 0.795088  Min(alpha.water) = -1.04049e-06  Max(alpha.water) = 1
Applying the previous iteration compression flux
MULES: Correcting alpha.water
MULES: Correcting alpha.water
MULES: Correcting alpha.water
MULES: Correcting alpha.water
Phase-1 volume fraction = 0.795088  Min(alpha.water) = -0.00145537  Max(alpha.water) = 1.00138
GAMG:  Solving for p_rgh, Initial residual = 0.0271695, Final residual = 4.96707e-08, No Iterations 9
time step continuity errors : sum local = 1.38155e-09, global = -3.08738e-10, cumulative = 7.80126e-07
GAMG:  Solving for p_rgh, Initial residual = 0.0278415, Final residual = 2.37885e-08, No Iterations 10
time step continuity errors : sum local = 6.69441e-10, global = 1.10475e-10, cumulative = 7.80237e-07
smoothSolver:  Solving for omega, Initial residual = 0.999995, Final residual = 3.28349e-19, No Iterations 1
bounding omega, min: -1.22604e+07 max: 1.38011e+17 average: 3.14155e+11
smoothSolver:  Solving for k, Initial residual = 0.00874846, Final residual = 6.31996e-09, No Iterations 1
bounding k, min: -0.00794417 max: 2.73827 average: 0.162922
ExecutionTime = 92.08 s  ClockTime = 92 s

forces forces write:
    Sum of forces
        Total    : (107.018 359.998 1278.25)
        Pressure : (59.8452 362.48 1279.81)
        Viscous  : (47.1728 -2.4815 -1.56476)
    Sum of moments
        Total    : (-72.3065 6826.03 -2229.58)
        Pressure : (-72.3629 6855.14 -2255.68)
        Viscous  : (0.0564249 -29.1079 26.0921)


Courant Number mean: 0.0489096 max: 24.6545
Interface Courant Number mean: 0.000204722 max: 13.2316
deltaT = 0.00925481
Time = 0.1

PIMPLE: iteration 1
forces forces:
    rho: rho
    Not including porosity effects

Rigid-body motion of the hull
    Centre of rotation: (0 0 -0.0154162)
    Orientation: (0.999987 0 -0.00508714 0 1 0 0.00508714 0 0.999987)
    Linear velocity: (0 0 -0.31739)
    Angular velocity: (0 0.111139 0)
GAMG:  Solving for pcorr, Initial residual = 1, Final residual = 0.000475126, No Iterations 4
time step continuity errors : sum local = 7.99228e-08, global = 7.67398e-10, cumulative = 7.81004e-07
smoothSolver:  Solving for alpha.water, Initial residual = 2.11906e-05, Final residual = 7.36251e-11, No Iterations 7
Phase-1 volume fraction = 0.795088  Min(alpha.water) = -6.1621e-06  Max(alpha.water) = 1.00085
Applying the previous iteration compression flux
MULES: Correcting alpha.water
MULES: Correcting alpha.water
MULES: Correcting alpha.water
MULES: Correcting alpha.water
Phase-1 volume fraction = 0.795088  Min(alpha.water) = -0.00174038  Max(alpha.water) = 1.00085
GAMG:  Solving for p_rgh, Initial residual = 0.0329239, Final residual = 3.95616e-08, No Iterations 10
time step continuity errors : sum local = 1.10367e-09, global = -1.89712e-10, cumulative = 7.80815e-07
GAMG:  Solving for p_rgh, Initial residual = 0.025509, Final residual = 4.19869e-08, No Iterations 10
time step continuity errors : sum local = 1.15311e-09, global = 2.09027e-10, cumulative = 7.81024e-07
PIMPLE: iteration 2
smoothSolver:  Solving for alpha.water, Initial residual = 2.29696e-05, Final residual = 4.38037e-11, No Iterations 7
Phase-1 volume fraction = 0.795088  Min(alpha.water) = -2.6215e-08  Max(alpha.water) = 1
Applying the previous iteration compression flux
MULES: Correcting alpha.water
MULES: Correcting alpha.water
MULES: Correcting alpha.water
MULES: Correcting alpha.water
Phase-1 volume fraction = 0.795088  Min(alpha.water) = -0.00244673  Max(alpha.water) = 1.00052
GAMG:  Solving for p_rgh, Initial residual = 0.025801, Final residual = 2.13326e-08, No Iterations 10
time step continuity errors : sum local = 5.94285e-10, global = -1.30719e-10, cumulative = 7.80893e-07
GAMG:  Solving for p_rgh, Initial residual = 0.0255011, Final residual = 2.79281e-08, No Iterations 10
time step continuity errors : sum local = 7.89414e-10, global = 1.36377e-10, cumulative = 7.81029e-07
smoothSolver:  Solving for omega, Initial residual = 3.07883e-10, Final residual = 1.71858e-18, No Iterations 1
bounding omega, min: -1.51474e+14 max: 3.52488e+22 average: 6.74183e+16
smoothSolver:  Solving for k, Initial residual = 0.000125929, Final residual = 1.74314e-14, No Iterations 1
bounding k, min: -0.0218182 max: 2.7282 average: 0.161779
ExecutionTime = 101.4 s  ClockTime = 102 s

forces forces write:
    Sum of forces
        Total    : (105.136 351.434 1298.37)
        Pressure : (58.4101 353.858 1299.93)
        Viscous  : (46.7255 -2.4244 -1.56891)
    Sum of moments
        Total    : (-79.6961 6890.79 -2174.75)
        Pressure : (-79.7373 6919.93 -2200.05)
        Viscous  : (0.0412441 -29.135 25.2972)


Courant Number mean: 0.0489254 max: 24.5697
Interface Courant Number mean: 0.000203368 max: 13.4999
deltaT = 0.01
Time = 0.11

PIMPLE: iteration 1
forces forces:
    rho: rho
    Not including porosity effects

Rigid-body motion of the hull
    Centre of rotation: (0 0 -0.0187128)
    Orientation: (0.99998 0 -0.00625114 0 1 0 0.00625114 0 0.99998)
    Linear velocity: (4.33681e-19 0 -0.341937)
    Angular velocity: (0 0.121664 0)
GAMG:  Solving for pcorr, Initial residual = 1, Final residual = 0.000492043, No Iterations 4
time step continuity errors : sum local = 9.20356e-08, global = 2.20269e-09, cumulative = 7.83232e-07
smoothSolver:  Solving for alpha.water, Initial residual = 2.3019e-05, Final residual = 6.33405e-11, No Iterations 8
Phase-1 volume fraction = 0.795088  Min(alpha.water) = -1.45562e-06  Max(alpha.water) = 1.00087
Applying the previous iteration compression flux
MULES: Correcting alpha.water
MULES: Correcting alpha.water
MULES: Correcting alpha.water
MULES: Correcting alpha.water
Phase-1 volume fraction = 0.795088  Min(alpha.water) = -0.0022358  Max(alpha.water) = 1.00087
GAMG:  Solving for p_rgh, Initial residual = 0.0302895, Final residual = 4.32754e-08, No Iterations 10
time step continuity errors : sum local = 1.40671e-09, global = -2.5823e-10, cumulative = 7.82974e-07
GAMG:  Solving for p_rgh, Initial residual = 0.0245787, Final residual = 4.57391e-08, No Iterations 10
time step continuity errors : sum local = 1.46501e-09, global = 2.0022e-10, cumulative = 7.83174e-07
PIMPLE: iteration 2
smoothSolver:  Solving for alpha.water, Initial residual = 2.48594e-05, Final residual = 7.59576e-11, No Iterations 7
Phase-1 volume fraction = 0.795088  Min(alpha.water) = -5.6635e-08  Max(alpha.water) = 1
Applying the previous iteration compression flux
MULES: Correcting alpha.water
MULES: Correcting alpha.water
MULES: Correcting alpha.water
MULES: Correcting alpha.water
Phase-1 volume fraction = 0.795088  Min(alpha.water) = -0.00214158  Max(alpha.water) = 1.00068
GAMG:  Solving for p_rgh, Initial residual = 0.0254344, Final residual = 3.34364e-08, No Iterations 10
time step continuity errors : sum local = 1.08201e-09, global = -1.28552e-10, cumulative = 7.83045e-07
GAMG:  Solving for p_rgh, Initial residual = 0.0251264, Final residual = 3.12314e-08, No Iterations 10
time step continuity errors : sum local = 1.02587e-09, global = 1.30128e-10, cumulative = 7.83175e-07
smoothSolver:  Solving for omega, Initial residual = 6.69612e-08, Final residual = 2.70323e-27, No Iterations 1
bounding omega, min: -1.4295e+18 max: 6.44502e+22 average: 9.70265e+16
smoothSolver:  Solving for k, Initial residual = 3.49792e-06, Final residual = 5.1175e-15, No Iterations 1
bounding k, min: -0.02822 max: 2.80224 average: 0.161025
ExecutionTime = 111.28 s  ClockTime = 112 s

forces forces write:
    Sum of forces
        Total    : (102.686 352.65 1302.57)
        Pressure : (56.3012 355.036 1304.14)
        Viscous  : (46.3843 -2.38527 -1.57866)
    Sum of moments
        Total    : (-83.1992 6876.69 -2169.06)
        Pressure : (-83.2203 6905.92 -2193.68)
        Viscous  : (0.0211168 -29.2305 24.623)


Courant Number mean: 0.0528803 max: 26.4922
Interface Courant Number mean: 0.000217878 max: 14.0067
deltaT = 0.01125
Time = 0.12125

PIMPLE: iteration 1
forces forces:
    rho: rho
    Not including porosity effects

Rigid-body motion of the hull
    Centre of rotation: (0 0 -0.0226962)
    Orientation: (0.99997 0 -0.00768214 0 1 0 0.00768214 0 0.99997)
    Linear velocity: (0 0 -0.366226)
    Angular velocity: (0 0.132742 0)
GAMG:  Solving for pcorr, Initial residual = 1, Final residual = 0.000500549, No Iterations 4
time step continuity errors : sum local = 1.08522e-07, global = -1.26896e-09, cumulative = 7.81907e-07
smoothSolver:  Solving for alpha.water, Initial residual = 2.60464e-05, Final residual = 8.07763e-11, No Iterations 9
Phase-1 volume fraction = 0.795088  Min(alpha.water) = -2.44595e-06  Max(alpha.water) = 1.00092
Applying the previous iteration compression flux
MULES: Correcting alpha.water
MULES: Correcting alpha.water
MULES: Correcting alpha.water
MULES: Correcting alpha.water
Phase-1 volume fraction = 0.795088  Min(alpha.water) = -0.00293455  Max(alpha.water) = 1.00092
GAMG:  Solving for p_rgh, Initial residual = 0.0294822, Final residual = 2.66798e-08, No Iterations 11
time step continuity errors : sum local = 1.08175e-09, global = -1.30827e-10, cumulative = 7.81776e-07
GAMG:  Solving for p_rgh, Initial residual = 0.0305709, Final residual = 4.11576e-08, No Iterations 10
time step continuity errors : sum local = 1.64295e-09, global = 3.4558e-10, cumulative = 7.82121e-07
PIMPLE: iteration 2
smoothSolver:  Solving for alpha.water, Initial residual = 2.80133e-05, Final residual = 7.44635e-11, No Iterations 8
Phase-1 volume fraction = 0.795088  Min(alpha.water) = -2.30461e-07  Max(alpha.water) = 1
Applying the previous iteration compression flux
MULES: Correcting alpha.water
MULES: Correcting alpha.water
MULES: Correcting alpha.water
MULES: Correcting alpha.water
Phase-1 volume fraction = 0.795088  Min(alpha.water) = -0.00472857  Max(alpha.water) = 1.0008
GAMG:  Solving for p_rgh, Initial residual = 0.0307296, Final residual = 4.01136e-08, No Iterations 9
time step continuity errors : sum local = 1.62647e-09, global = -5.43503e-11, cumulative = 7.82067e-07
GAMG:  Solving for p_rgh, Initial residual = 0.0308745, Final residual = 2.17597e-08, No Iterations 10
time step continuity errors : sum local = 8.89933e-10, global = 1.82059e-10, cumulative = 7.82249e-07
smoothSolver:  Solving for omega, Initial residual = 4.40362e-17, Final residual = 5.09256e-33, No Iterations 1
bounding omega, min: -5.46179e+16 max: 4.94725e+26 average: 1.77997e+21
smoothSolver:  Solving for k, Initial residual = 0.00140455, Final residual = 5.19475e-19, No Iterations 1
bounding k, min: -0.101262 max: 3.46386 average: 0.159781
ExecutionTime = 120.85 s  ClockTime = 121 s

forces forces write:
    Sum of forces
        Total    : (98.5368 336.279 1326.9)
        Pressure : (52.3643 338.656 1328.49)
        Viscous  : (46.1725 -2.37632 -1.59133)
    Sum of moments
        Total    : (-94.7264 6941.23 -2060.55)
        Pressure : (-94.7153 6970.64 -2084.66)
        Viscous  : (-0.0111482 -29.4072 24.1137)


Courant Number mean: 0.059631 max: 29.7247
Interface Courant Number mean: 0.000243475 max: 14.7437
deltaT = 0.01125
Time = 0.1325

PIMPLE: iteration 1
forces forces:
    rho: rho
    Not including porosity effects

Rigid-body motion of the hull
    Centre of rotation: (0 0 -0.0269324)
    Orientation: (0.999957 0 -0.00923246 0 1 0 0.00923246 0 0.999957)
    Linear velocity: (0 0 -0.386872)
    Angular velocity: (0 0.142881 0)
GAMG:  Solving for pcorr, Initial residual = 1, Final residual = 0.000987968, No Iterations 3
time step continuity errors : sum local = 2.80698e-07, global = 8.08361e-09, cumulative = 7.90333e-07
smoothSolver:  Solving for alpha.water, Initial residual = 2.62079e-05, Final residual = 4.84486e-11, No Iterations 10
Phase-1 volume fraction = 0.795088  Min(alpha.water) = -2.08781e-06  Max(alpha.water) = 1.0029
Applying the previous iteration compression flux
MULES: Correcting alpha.water
MULES: Correcting alpha.water
MULES: Correcting alpha.water
MULES: Correcting alpha.water
Phase-1 volume fraction = 0.795088  Min(alpha.water) = -0.00468785  Max(alpha.water) = 1.0029
GAMG:  Solving for p_rgh, Initial residual = 0.0362788, Final residual = 4.60534e-08, No Iterations 10
time step continuity errors : sum local = 1.87764e-09, global = -3.7829e-10, cumulative = 7.89954e-07
GAMG:  Solving for p_rgh, Initial residual = 0.0249482, Final residual = 4.1091e-08, No Iterations 10
time step continuity errors : sum local = 1.65892e-09, global = 2.62885e-10, cumulative = 7.90217e-07
PIMPLE: iteration 2
smoothSolver:  Solving for alpha.water, Initial residual = 2.80788e-05, Final residual = 8.77204e-11, No Iterations 8
Phase-1 volume fraction = 0.795088  Min(alpha.water) = -1.75146e-06  Max(alpha.water) = 1
Applying the previous iteration compression flux
MULES: Correcting alpha.water
MULES: Correcting alpha.water
MULES: Correcting alpha.water
MULES: Correcting alpha.water
Phase-1 volume fraction = 0.795088  Min(alpha.water) = -0.00357362  Max(alpha.water) = 1.00063
GAMG:  Solving for p_rgh, Initial residual = 0.0256109, Final residual = 2.67494e-08, No Iterations 10
time step continuity errors : sum local = 1.08623e-09, global = -1.53894e-10, cumulative = 7.90063e-07
GAMG:  Solving for p_rgh, Initial residual = 0.0248068, Final residual = 2.45272e-08, No Iterations 10
time step continuity errors : sum local = 1.00945e-09, global = 1.64358e-10, cumulative = 7.90228e-07
smoothSolver:  Solving for omega, Initial residual = 3.20908e-11, Final residual = 8.26402e-34, No Iterations 1
bounding omega, min: -4.14091e+20 max: 1.33031e+28 average: 1.79647e+22
smoothSolver:  Solving for k, Initial residual = 0.0136974, Final residual = 2.62653e-20, No Iterations 1
bounding k, min: -0.0599545 max: 3.23762 average: 0.158845
ExecutionTime = 130.63 s  ClockTime = 131 s

forces forces write:
    Sum of forces
        Total    : (91.7227 336.246 1353.81)
        Pressure : (45.646 338.648 1355.41)
        Viscous  : (46.0767 -2.40168 -1.60053)
    Sum of moments
        Total    : (-104.095 6984.2 -2031.94)
        Pressure : (-104.038 7013.82 -2055.74)
        Viscous  : (-0.0563516 -29.6205 23.8008)


Courant Number mean: 0.0596051 max: 29.6549
Interface Courant Number mean: 0.000242548 max: 13.59
deltaT = 0.0135
Time = 0.146

PIMPLE: iteration 1
forces forces:
    rho: rho
    Not including porosity effects

Rigid-body motion of the hull
    Centre of rotation: (0 0 -0.0322855)
    Orientation: (0.999937 0 -0.0112329 0 1 0 0.0112329 0 0.999937)
    Linear velocity: (0 0 -0.406183)
    Angular velocity: (0 0.153503 0)
GAMG:  Solving for pcorr, Initial residual = 1, Final residual = 0.000484928, No Iterations 4
time step continuity errors : sum local = 1.5239e-07, global = 4.20748e-09, cumulative = 7.94435e-07
smoothSolver:  Solving for alpha.water, Initial residual = 3.16148e-05, Final residual = 5.37315e-11, No Iterations 12
Phase-1 volume fraction = 0.795088  Min(alpha.water) = -0.000104347  Max(alpha.water) = 1.001
Applying the previous iteration compression flux
MULES: Correcting alpha.water
MULES: Correcting alpha.water
MULES: Correcting alpha.water
MULES: Correcting alpha.water
Phase-1 volume fraction = 0.795088  Min(alpha.water) = -0.00602585  Max(alpha.water) = 1.001
GAMG:  Solving for p_rgh, Initial residual = 0.0295228, Final residual = 3.24661e-08, No Iterations 10
time step continuity errors : sum local = 1.86111e-09, global = -4.16852e-11, cumulative = 7.94393e-07
GAMG:  Solving for p_rgh, Initial residual = 0.0323081, Final residual = 3.86158e-08, No Iterations 10
time step continuity errors : sum local = 2.17779e-09, global = 3.60493e-10, cumulative = 7.94754e-07
PIMPLE: iteration 2
smoothSolver:  Solving for alpha.water, Initial residual = 3.37332e-05, Final residual = 6.4063e-11, No Iterations 10
Phase-1 volume fraction = 0.795088  Min(alpha.water) = -2.30346e-06  Max(alpha.water) = 1
Applying the previous iteration compression flux
MULES: Correcting alpha.water
MULES: Correcting alpha.water
MULES: Correcting alpha.water
MULES: Correcting alpha.water
Phase-1 volume fraction = 0.795088  Min(alpha.water) = -0.00552185  Max(alpha.water) = 1.00111
GAMG:  Solving for p_rgh, Initial residual = 0.0323753, Final residual = 2.49478e-08, No Iterations 10
time step continuity errors : sum local = 1.43947e-09, global = -2.14025e-10, cumulative = 7.9454e-07
GAMG:  Solving for p_rgh, Initial residual = 0.0324194, Final residual = 2.34554e-08, No Iterations 10
time step continuity errors : sum local = 1.35007e-09, global = 2.13184e-10, cumulative = 7.94753e-07
smoothSolver:  Solving for omega, Initial residual = 2.57993e-09, Final residual = 3.89045e-31, No Iterations 1
bounding omega, min: -6.08418e+21 max: 6.99938e+32 average: 8.95554e+26
smoothSolver:  Solving for k, Initial residual = 0.00178172, Final residual = 2.02979e-24, No Iterations 1
bounding k, min: -0.0911344 max: 3.12222 average: 0.156916
ExecutionTime = 140.2 s  ClockTime = 140 s

forces forces write:
    Sum of forces
        Total    : (90.6904 321.693 1394.36)
        Pressure : (44.5718 324.179 1395.96)
        Viscous  : (46.1186 -2.48526 -1.59262)
    Sum of moments
        Total    : (-119.72 7153.52 -1937.57)
        Pressure : (-119.586 7183.33 -1961.34)
        Viscous  : (-0.133214 -29.8124 23.7658)


Courant Number mean: 0.0717524 max: 35.5129
Interface Courant Number mean: 0.000286771 max: 17.3615
deltaT = 0.0108
Time = 0.1568

PIMPLE: iteration 1
forces forces:
    rho: rho
    Not including porosity effects

Rigid-body motion of the hull
    Centre of rotation: (0 0 -0.0367285)
    Orientation: (0.999916 0 -0.0129288 0 1 0 0.0129288 0 0.999916)
    Linear velocity: (0 0 -0.416581)
    Angular velocity: (0 0.160572 0)
GAMG:  Solving for pcorr, Initial residual = 1, Final residual = 0.000907426, No Iterations 3
time step continuity errors : sum local = 3.08709e-07, global = 1.23768e-08, cumulative = 8.0713e-07
smoothSolver:  Solving for alpha.water, Initial residual = 2.5457e-05, Final residual = 5.30071e-11, No Iterations 10
Phase-1 volume fraction = 0.795088  Min(alpha.water) = -9.26347e-05  Max(alpha.water) = 1.00254
Applying the previous iteration compression flux
MULES: Correcting alpha.water
MULES: Correcting alpha.water
MULES: Correcting alpha.water
MULES: Correcting alpha.water
Phase-1 volume fraction = 0.795088  Min(alpha.water) = -0.00219435  Max(alpha.water) = 1.00254
GAMG:  Solving for p_rgh, Initial residual = 0.0387333, Final residual = 4.10672e-08, No Iterations 10
time step continuity errors : sum local = 1.55941e-09, global = -2.41444e-10, cumulative = 8.06888e-07
GAMG:  Solving for p_rgh, Initial residual = 0.0140943, Final residual = 3.60514e-08, No Iterations 10
time step continuity errors : sum local = 1.3768e-09, global = -1.65702e-10, cumulative = 8.06723e-07
PIMPLE: iteration 2
smoothSolver:  Solving for alpha.water, Initial residual = 2.7061e-05, Final residual = 8.22549e-11, No Iterations 8
Phase-1 volume fraction = 0.795088  Min(alpha.water) = -4.19223e-06  Max(alpha.water) = 1
Applying the previous iteration compression flux
MULES: Correcting alpha.water
MULES: Correcting alpha.water
MULES: Correcting alpha.water
MULES: Correcting alpha.water
Phase-1 volume fraction = 0.795088  Min(alpha.water) = -0.00141818  Max(alpha.water) = 1.00009
GAMG:  Solving for p_rgh, Initial residual = 0.01622, Final residual = 4.5303e-08, No Iterations 9
time step continuity errors : sum local = 1.73158e-09, global = 3.22491e-10, cumulative = 8.07045e-07
GAMG:  Solving for p_rgh, Initial residual = 0.0163678, Final residual = 4.04856e-08, No Iterations 9
time step continuity errors : sum local = 1.55885e-09, global = -2.90028e-10, cumulative = 8.06755e-07
smoothSolver:  Solving for omega, Initial residual = 1.71669e-09, Final residual = 4.19362e-41, No Iterations 1
bounding omega, min: -1.08575e+23 max: 7.31295e+35 average: 7.53222e+29
smoothSolver:  Solving for k, Initial residual = 0.000142119, Final residual = 1.12775e-27, No Iterations 1
bounding k, min: -0.0386293 max: 3.23081 average: 0.155285
ExecutionTime = 149.73 s  ClockTime = 150 s

forces forces write:
    Sum of forces
        Total    : (80.6578 309.268 1353.11)
        Pressure : (34.5474 311.814 1354.69)
        Viscous  : (46.1104 -2.54612 -1.58768)
    Sum of moments
        Total    : (-121.063 6819.09 -1829.97)
        Pressure : (-120.868 6849.06 -1853.66)
        Viscous  : (-0.194863 -29.9748 23.6904)


Courant Number mean: 0.0571651 max: 28.3347
Interface Courant Number mean: 0.000227575 max: 16.8367
deltaT = 0.0108
Time = 0.1676

PIMPLE: iteration 1
forces forces:
    rho: rho
    Not including porosity effects

Rigid-body motion of the hull
    Centre of rotation: (0 0 -0.0412556)
    Orientation: (0.999892 0 -0.014692 0 1 0 0.014692 0 0.999892)
    Linear velocity: (-8.67362e-19 0 -0.421772)
    Angular velocity: (0 0.165965 0)
GAMG:  Solving for pcorr, Initial residual = 1, Final residual = 0.000497649, No Iterations 4
time step continuity errors : sum local = 9.66255e-08, global = 3.24943e-11, cumulative = 8.06788e-07
smoothSolver:  Solving for alpha.water, Initial residual = 2.55641e-05, Final residual = 5.54304e-11, No Iterations 10
Phase-1 volume fraction = 0.795088  Min(alpha.water) = -9.21984e-05  Max(alpha.water) = 1.00061
Applying the previous iteration compression flux
MULES: Correcting alpha.water
MULES: Correcting alpha.water
MULES: Correcting alpha.water
MULES: Correcting alpha.water
Phase-1 volume fraction = 0.795088  Min(alpha.water) = -0.00244637  Max(alpha.water) = 1.00061
GAMG:  Solving for p_rgh, Initial residual = 0.0253934, Final residual = 3.42585e-08, No Iterations 10
time step continuity errors : sum local = 1.31023e-09, global = 1.91333e-10, cumulative = 8.06979e-07
GAMG:  Solving for p_rgh, Initial residual = 0.0240316, Final residual = 2.46929e-08, No Iterations 10
time step continuity errors : sum local = 9.62515e-10, global = -1.87032e-10, cumulative = 8.06792e-07
PIMPLE: iteration 2
smoothSolver:  Solving for alpha.water, Initial residual = 2.70897e-05, Final residual = 7.86069e-11, No Iterations 8
Phase-1 volume fraction = 0.795088  Min(alpha.water) = -2.4385e-06  Max(alpha.water) = 1
Applying the previous iteration compression flux
MULES: Correcting alpha.water
MULES: Correcting alpha.water
MULES: Correcting alpha.water
MULES: Correcting alpha.water
Phase-1 volume fraction = 0.795088  Min(alpha.water) = -0.00324394  Max(alpha.water) = 1.00011
GAMG:  Solving for p_rgh, Initial residual = 0.0265184, Final residual = 3.5778e-08, No Iterations 9
time step continuity errors : sum local = 1.37723e-09, global = 3.32581e-10, cumulative = 8.07125e-07
GAMG:  Solving for p_rgh, Initial residual = 0.0263478, Final residual = 3.42261e-08, No Iterations 9
time step continuity errors : sum local = 1.32852e-09, global = -3.55811e-10, cumulative = 8.06769e-07
smoothSolver:  Solving for omega, Initial residual = 8.82049e-09, Final residual = 2.60551e-41, No Iterations 1
bounding omega, min: -2.63104e+31 max: 2.77609e+38 average: 3.5723e+32
smoothSolver:  Solving for k, Initial residual = 0.00144655, Final residual = 6.87664e-30, No Iterations 1
bounding k, min: -0.0482991 max: 2.687 average: 0.152553
ExecutionTime = 159.25 s  ClockTime = 160 s

forces forces write:
    Sum of forces
        Total    : (84.5369 307.582 1329.84)
        Pressure : (38.4958 310.175 1331.4)
        Viscous  : (46.0411 -2.59283 -1.56361)
    Sum of moments
        Total    : (-119.688 6751.45 -1821.97)
        Pressure : (-119.433 6781.4 -1845.57)
        Viscous  : (-0.25502 -29.9542 23.5916)


Courant Number mean: 0.0572325 max: 28.2867
Interface Courant Number mean: 0.000226143 max: 17.0661
deltaT = 0.0108
Time = 0.1784

PIMPLE: iteration 1
forces forces:
    rho: rho
    Not including porosity effects

Rigid-body motion of the hull
    Centre of rotation: (0 0 -0.0458164)
    Orientation: (0.999864 0 -0.0165048 0 1 0 0.0165048 0 0.999864)
    Linear velocity: (8.67362e-19 0 -0.422836)
    Angular velocity: (0 0.169781 0)
GAMG:  Solving for pcorr, Initial residual = 1, Final residual = 0.000817102, No Iterations 3
time step continuity errors : sum local = 1.86897e-07, global = -4.79787e-09, cumulative = 8.01971e-07
smoothSolver:  Solving for alpha.water, Initial residual = 2.5669e-05, Final residual = 5.43221e-11, No Iterations 10
Phase-1 volume fraction = 0.795089  Min(alpha.water) = -2.5251e-05  Max(alpha.water) = 1.00151
Applying the previous iteration compression flux
MULES: Correcting alpha.water
MULES: Correcting alpha.water
MULES: Correcting alpha.water
MULES: Correcting alpha.water
Phase-1 volume fraction = 0.795089  Min(alpha.water) = -0.00175411  Max(alpha.water) = 1.00151
GAMG:  Solving for p_rgh, Initial residual = 0.0322989, Final residual = 4.57968e-08, No Iterations 9
time step continuity errors : sum local = 1.75919e-09, global = 4.77391e-10, cumulative = 8.02448e-07
GAMG:  Solving for p_rgh, Initial residual = 0.0239477, Final residual = 3.66563e-08, No Iterations 9
time step continuity errors : sum local = 1.44279e-09, global = 4.87961e-11, cumulative = 8.02497e-07
PIMPLE: iteration 2
smoothSolver:  Solving for alpha.water, Initial residual = 2.71313e-05, Final residual = 7.09899e-11, No Iterations 8
Phase-1 volume fraction = 0.795089  Min(alpha.water) = -2.76459e-05  Max(alpha.water) = 1
Applying the previous iteration compression flux
MULES: Correcting alpha.water
MULES: Correcting alpha.water
MULES: Correcting alpha.water
MULES: Correcting alpha.water
Phase-1 volume fraction = 0.795089  Min(alpha.water) = -0.00148203  Max(alpha.water) = 1.00019
GAMG:  Solving for p_rgh, Initial residual = 0.0259648, Final residual = 2.64844e-08, No Iterations 9
time step continuity errors : sum local = 1.03203e-09, global = 1.78929e-10, cumulative = 8.02676e-07
GAMG:  Solving for p_rgh, Initial residual = 0.0256161, Final residual = 3.82551e-08, No Iterations 9
time step continuity errors : sum local = 1.49459e-09, global = 2.619e-10, cumulative = 8.02938e-07
smoothSolver:  Solving for omega, Initial residual = 2.54609e-05, Final residual = 6.03407e-40, No Iterations 1
bounding omega, min: -4.00962e+29 max: 5.43625e+39 average: 6.66185e+33
smoothSolver:  Solving for k, Initial residual = 0.107672, Final residual = 1.14807e-31, No Iterations 1
bounding k, min: -0.0892823 max: 2.43609 average: 0.149293
ExecutionTime = 168.03 s  ClockTime = 168 s

forces forces write:
    Sum of forces
        Total    : (86.6631 291.35 1304.17)
        Pressure : (40.7997 293.977 1305.69)
        Viscous  : (45.8634 -2.62651 -1.5225)
    Sum of moments
        Total    : (-120.822 6642.93 -1729.53)
        Pressure : (-120.508 6672.69 -1753)
        Viscous  : (-0.31404 -29.7615 23.4684)


Courant Number mean: 0.0572521 max: 28.2743
Interface Courant Number mean: 0.000224892 max: 16.7561
deltaT = 0.0108
Time = 0.1892

PIMPLE: iteration 1
forces forces:
    rho: rho
    Not including porosity effects

Rigid-body motion of the hull
    Centre of rotation: (0 0 -0.0503763)
    Orientation: (0.999832 0 -0.0183533 0 1 0 0.0183533 0 0.999832)
    Linear velocity: (8.67362e-19 0 -0.421578)
    Angular velocity: (0 0.172588 0)
GAMG:  Solving for pcorr, Initial residual = 1, Final residual = 0.000608573, No Iterations 3
time step continuity errors : sum local = 1.44808e-07, global = -4.93717e-10, cumulative = 8.02444e-07
smoothSolver:  Solving for alpha.water, Initial residual = 2.57653e-05, Final residual = 5.10001e-11, No Iterations 10
Phase-1 volume fraction = 0.795089  Min(alpha.water) = -5.76957e-07  Max(alpha.water) = 1.00116
Applying the previous iteration compression flux
MULES: Correcting alpha.water
MULES: Correcting alpha.water
MULES: Correcting alpha.water
MULES: Correcting alpha.water
Phase-1 volume fraction = 0.795089  Min(alpha.water) = -0.00178872  Max(alpha.water) = 1.00116
GAMG:  Solving for p_rgh, Initial residual = 0.0313476, Final residual = 2.53484e-08, No Iterations 10
time step continuity errors : sum local = 9.86574e-10, global = -1.15063e-10, cumulative = 8.02329e-07
GAMG:  Solving for p_rgh, Initial residual = 0.0231305, Final residual = 4.66381e-08, No Iterations 9
time step continuity errors : sum local = 1.85034e-09, global = -1.36757e-10, cumulative = 8.02192e-07
PIMPLE: iteration 2
smoothSolver:  Solving for alpha.water, Initial residual = 2.71652e-05, Final residual = 6.01586e-11, No Iterations 8
Phase-1 volume fraction = 0.795089  Min(alpha.water) = -1.2134e-05  Max(alpha.water) = 1.00001
Applying the previous iteration compression flux
MULES: Correcting alpha.water
MULES: Correcting alpha.water
MULES: Correcting alpha.water
MULES: Correcting alpha.water
Phase-1 volume fraction = 0.795089  Min(alpha.water) = -0.00192909  Max(alpha.water) = 1.00006
GAMG:  Solving for p_rgh, Initial residual = 0.0242297, Final residual = 4.11401e-08, No Iterations 9
time step continuity errors : sum local = 1.60753e-09, global = 2.67409e-12, cumulative = 8.02195e-07
GAMG:  Solving for p_rgh, Initial residual = 0.0236554, Final residual = 3.38094e-08, No Iterations 9
time step continuity errors : sum local = 1.32612e-09, global = -3.71642e-10, cumulative = 8.01823e-07
smoothSolver:  Solving for omega, Initial residual = 9.16529e-14, Final residual = 1.14279e-49, No Iterations 1
bounding omega, min: -2.03373e+35 max: 6.5668e+40 average: 1.31187e+35
smoothSolver:  Solving for k, Initial residual = 0.0034645, Final residual = 2.08808e-32, No Iterations 1
bounding k, min: -0.134193 max: 2.41335 average: 0.144405
ExecutionTime = 176.72 s  ClockTime = 177 s

forces forces write:
    Sum of forces
        Total    : (87.252 293.148 1297.88)
        Pressure : (41.8079 295.791 1299.35)
        Viscous  : (45.4441 -2.64237 -1.46391)
    Sum of moments
        Total    : (-120.658 6622.82 -1731.94)
        Pressure : (-120.288 6652.16 -1755.19)
        Viscous  : (-0.369394 -29.3437 23.2518)


Courant Number mean: 0.0572426 max: 28.2892
Interface Courant Number mean: 0.0002233 max: 16.0934
deltaT = 0.0108
Time = 0.2

PIMPLE: iteration 1
forces forces:
    rho: rho
    Not including porosity effects

Rigid-body motion of the hull
    Centre of rotation: (0 0 -0.0549154)
    Orientation: (0.999795 0 -0.0202283 0 1 0 0.0202283 0 0.999795)
    Linear velocity: (0 0 -0.419001)
    Angular velocity: (0 0.174709 0)
GAMG:  Solving for pcorr, Initial residual = 1, Final residual = 0.000501509, No Iterations 3
time step continuity errors : sum local = 1.17315e-07, global = 1.59675e-09, cumulative = 8.0342e-07
smoothSolver:  Solving for alpha.water, Initial residual = 2.58621e-05, Final residual = 4.54629e-11, No Iterations 10
Phase-1 volume fraction = 0.795089  Min(alpha.water) = -6.18816e-07  Max(alpha.water) = 1.00093
Applying the previous iteration compression flux
MULES: Correcting alpha.water
MULES: Correcting alpha.water
MULES: Correcting alpha.water
MULES: Correcting alpha.water
Phase-1 volume fraction = 0.795089  Min(alpha.water) = -0.00204948  Max(alpha.water) = 1.00093
GAMG:  Solving for p_rgh, Initial residual = 0.0295909, Final residual = 3.70094e-08, No Iterations 9
time step continuity errors : sum local = 1.4408e-09, global = 5.51908e-10, cumulative = 8.03972e-07
GAMG:  Solving for p_rgh, Initial residual = 0.0234987, Final residual = 3.3344e-08, No Iterations 9
time step continuity errors : sum local = 1.325e-09, global = 2.40686e-10, cumulative = 8.04213e-07
PIMPLE: iteration 2
smoothSolver:  Solving for alpha.water, Initial residual = 2.71906e-05, Final residual = 5.22113e-11, No Iterations 8
Phase-1 volume fraction = 0.795089  Min(alpha.water) = -1.12609e-06  Max(alpha.water) = 1
Applying the previous iteration compression flux
MULES: Correcting alpha.water
MULES: Correcting alpha.water
MULES: Correcting alpha.water
MULES: Correcting alpha.water
Phase-1 volume fraction = 0.795089  Min(alpha.water) = -0.00100507  Max(alpha.water) = 1.00009
GAMG:  Solving for p_rgh, Initial residual = 0.0249792, Final residual = 2.94369e-08, No Iterations 9
time step continuity errors : sum local = 1.15524e-09, global = -1.42437e-10, cumulative = 8.0407e-07
GAMG:  Solving for p_rgh, Initial residual = 0.025118, Final residual = 3.69215e-08, No Iterations 9
time step continuity errors : sum local = 1.45257e-09, global = 1.94498e-10, cumulative = 8.04265e-07
smoothSolver:  Solving for omega, Initial residual = 2.16136e-14, Final residual = 1.37156e-45, No Iterations 1
bounding omega, min: -5.57284e+33 max: 2.31835e+50 average: 2.40921e+44
smoothSolver:  Solving for k, Initial residual = 6.4716e-05, Final residual = 1.39324e-41, No Iterations 1
bounding k, min: -0.0946696 max: 2.42227 average: 0.140156
ExecutionTime = 185.36 s  ClockTime = 186 s

forces forces write:
    Sum of forces
        Total    : (87.8923 288.742 1312.79)
        Pressure : (43.0199 291.376 1314.19)
        Viscous  : (44.8724 -2.63383 -1.39896)
    Sum of moments
        Total    : (-125.215 6695.15 -1700.4)
        Pressure : (-124.8 6723.95 -1723.35)
        Viscous  : (-0.414951 -28.7991 22.9471)


Courant Number mean: 0.0572742 max: 28.3355
Interface Courant Number mean: 0.000222844 max: 15.0066
deltaT = 0.0111111
Time = 0.211111

PIMPLE: iteration 1
forces forces:
    rho: rho
    Not including porosity effects

Rigid-body motion of the hull
    Centre of rotation: (0 0 -0.0595502)
    Orientation: (0.999754 0 -0.0221783 0 1 0 0.0221783 0 0.999754)
    Linear velocity: (0 0 -0.415258)
    Angular velocity: (0 0.176357 0)
GAMG:  Solving for pcorr, Initial residual = 1, Final residual = 0.000440734, No Iterations 3
time step continuity errors : sum local = 1.13107e-07, global = 3.94091e-09, cumulative = 8.08206e-07
smoothSolver:  Solving for alpha.water, Initial residual = 2.66884e-05, Final residual = 4.7977e-11, No Iterations 10
Phase-1 volume fraction = 0.795089  Min(alpha.water) = -1.55923e-07  Max(alpha.water) = 1.00079
Applying the previous iteration compression flux
MULES: Correcting alpha.water
MULES: Correcting alpha.water
MULES: Correcting alpha.water
MULES: Correcting alpha.water
Phase-1 volume fraction = 0.795089  Min(alpha.water) = -0.00202913  Max(alpha.water) = 1.00079
GAMG:  Solving for p_rgh, Initial residual = 0.0308658, Final residual = 4.03514e-08, No Iterations 9
time step continuity errors : sum local = 1.66581e-09, global = -3.30532e-10, cumulative = 8.07875e-07
GAMG:  Solving for p_rgh, Initial residual = 0.0226862, Final residual = 2.92855e-08, No Iterations 9
time step continuity errors : sum local = 1.2269e-09, global = 2.22573e-10, cumulative = 8.08098e-07
PIMPLE: iteration 2
smoothSolver:  Solving for alpha.water, Initial residual = 2.79943e-05, Final residual = 5.23662e-11, No Iterations 8
Phase-1 volume fraction = 0.795089  Min(alpha.water) = -6.0723e-06  Max(alpha.water) = 1
Applying the previous iteration compression flux
MULES: Correcting alpha.water
MULES: Correcting alpha.water
MULES: Correcting alpha.water
MULES: Correcting alpha.water
Phase-1 volume fraction = 0.795089  Min(alpha.water) = -0.0013015  Max(alpha.water) = 1.00011
GAMG:  Solving for p_rgh, Initial residual = 0.0249272, Final residual = 2.68516e-08, No Iterations 9
time step continuity errors : sum local = 1.11247e-09, global = -8.37372e-11, cumulative = 8.08014e-07
GAMG:  Solving for p_rgh, Initial residual = 0.0246575, Final residual = 2.63984e-08, No Iterations 9
time step continuity errors : sum local = 1.09853e-09, global = -2.58623e-10, cumulative = 8.07755e-07
smoothSolver:  Solving for omega, Initial residual = 0.00116404, Final residual = 2.43019e-61, No Iterations 1
bounding omega, min: -1.25052e+41 max: 1.4245e+41 average: 2.3002e+35
smoothSolver:  Solving for k, Initial residual = 7.39867e-05, Final residual = 1.39671e-33, No Iterations 1
bounding k, min: -0.0532774 max: 2.43711 average: 0.134696
ExecutionTime = 194.13 s  ClockTime = 195 s

forces forces write:
    Sum of forces
        Total    : (87.2778 288.643 1328.82)
        Pressure : (43.2273 291.265 1330.14)
        Viscous  : (44.0505 -2.62159 -1.32228)
    Sum of moments
        Total    : (-128.554 6767.37 -1689.46)
        Pressure : (-128.093 6795.44 -1712.08)
        Viscous  : (-0.461223 -28.0719 22.6217)


Courant Number mean: 0.0589224 max: 29.2327
Interface Courant Number mean: 0.000228315 max: 14.9437
deltaT = 0.0111111
Time = 0.222222

PIMPLE: iteration 1
forces forces:
    rho: rho
    Not including porosity effects

Rigid-body motion of the hull
    Centre of rotation: (0 0 -0.0641364)
    Orientation: (0.999708 0 -0.0241438 0 1 0 0.0241438 0 0.999708)
    Linear velocity: (0 0 -0.410267)
    Angular velocity: (0 0.177534 0)
GAMG:  Solving for pcorr, Initial residual = 1, Final residual = 0.000360949, No Iterations 3
time step continuity errors : sum local = 9.27159e-08, global = 1.69502e-09, cumulative = 8.0945e-07
smoothSolver:  Solving for alpha.water, Initial residual = 2.6763e-05, Final residual = 9.20249e-11, No Iterations 9
Phase-1 volume fraction = 0.795089  Min(alpha.water) = -5.36684e-06  Max(alpha.water) = 1.0006
Applying the previous iteration compression flux
MULES: Correcting alpha.water
MULES: Correcting alpha.water
MULES: Correcting alpha.water
MULES: Correcting alpha.water
Phase-1 volume fraction = 0.795089  Min(alpha.water) = -0.00161558  Max(alpha.water) = 1.0006
GAMG:  Solving for p_rgh, Initial residual = 0.0302427, Final residual = 3.21262e-08, No Iterations 9
time step continuity errors : sum local = 1.32842e-09, global = 3.5535e-10, cumulative = 8.09806e-07
GAMG:  Solving for p_rgh, Initial residual = 0.0244626, Final residual = 3.86862e-08, No Iterations 8
time step continuity errors : sum local = 1.6311e-09, global = -3.77855e-10, cumulative = 8.09428e-07
PIMPLE: iteration 2
smoothSolver:  Solving for alpha.water, Initial residual = 2.80186e-05, Final residual = 5.04436e-11, No Iterations 8
Phase-1 volume fraction = 0.795089  Min(alpha.water) = -2.27762e-05  Max(alpha.water) = 1.00001
Applying the previous iteration compression flux
MULES: Correcting alpha.water
MULES: Correcting alpha.water
MULES: Correcting alpha.water
MULES: Correcting alpha.water
Phase-1 volume fraction = 0.795089  Min(alpha.water) = -0.00364572  Max(alpha.water) = 1.00031
GAMG:  Solving for p_rgh, Initial residual = 0.0262862, Final residual = 4.61702e-08, No Iterations 8
time step continuity errors : sum local = 1.92034e-09, global = 6.41776e-10, cumulative = 8.1007e-07
GAMG:  Solving for p_rgh, Initial residual = 0.0249402, Final residual = 2.765e-08, No Iterations 9
time step continuity errors : sum local = 1.15413e-09, global = -2.4723e-10, cumulative = 8.09822e-07
smoothSolver:  Solving for omega, Initial residual = 6.5037e-13, Final residual = 6.27993e-50, No Iterations 1
bounding omega, min: -3.56936e+36 max: 1.41191e+45 average: 1.51309e+39
smoothSolver:  Solving for k, Initial residual = 2.55531e-05, Final residual = 1.44294e-36, No Iterations 1
bounding k, min: -0.0742852 max: 2.46143 average: 0.131559
ExecutionTime = 202.67 s  ClockTime = 203 s

forces forces write:
    Sum of forces
        Total    : (85.9441 282.488 1321.89)
        Pressure : (42.8431 285.084 1323.14)
        Viscous  : (43.1009 -2.59607 -1.24867)
    Sum of moments
        Total    : (-129.271 6720.04 -1644.03)
        Pressure : (-128.771 6747.34 -1666.26)
        Viscous  : (-0.499576 -27.2949 22.2289)


Courant Number mean: 0.0589333 max: 29.3356
Interface Courant Number mean: 0.000227529 max: 15.6626
deltaT = 0.0111111
Time = 0.233333

PIMPLE: iteration 1
forces forces:
    rho: rho
    Not including porosity effects

Rigid-body motion of the hull
    Centre of rotation: (0 0 -0.0686604)
    Orientation: (0.999659 0 -0.0261198 0 1 0 0.0261198 0 0.999659)
    Linear velocity: (0 0 -0.404039)
    Angular velocity: (0 0.178262 0)
GAMG:  Solving for pcorr, Initial residual = 1, Final residual = 0.000372081, No Iterations 3
time step continuity errors : sum local = 9.58715e-08, global = 4.87749e-10, cumulative = 8.1031e-07
smoothSolver:  Solving for alpha.water, Initial residual = 2.68351e-05, Final residual = 7.46757e-11, No Iterations 9
Phase-1 volume fraction = 0.795089  Min(alpha.water) = -1.28741e-06  Max(alpha.water) = 1.00035
Applying the previous iteration compression flux
MULES: Correcting alpha.water
MULES: Correcting alpha.water
MULES: Correcting alpha.water
MULES: Correcting alpha.water
Phase-1 volume fraction = 0.795089  Min(alpha.water) = -0.00150219  Max(alpha.water) = 1.00035
GAMG:  Solving for p_rgh, Initial residual = 0.0310768, Final residual = 3.25406e-08, No Iterations 9
time step continuity errors : sum local = 1.34941e-09, global = 2.49764e-10, cumulative = 8.1056e-07
GAMG:  Solving for p_rgh, Initial residual = 0.0229946, Final residual = 2.39219e-08, No Iterations 9
time step continuity errors : sum local = 1.01603e-09, global = -4.00594e-10, cumulative = 8.10159e-07
PIMPLE: iteration 2
smoothSolver:  Solving for alpha.water, Initial residual = 2.80358e-05, Final residual = 4.48216e-11, No Iterations 8
Phase-1 volume fraction = 0.795089  Min(alpha.water) = -6.09403e-07  Max(alpha.water) = 1.00001
Applying the previous iteration compression flux
MULES: Correcting alpha.water
MULES: Correcting alpha.water
MULES: Correcting alpha.water
MULES: Correcting alpha.water
Phase-1 volume fraction = 0.795089  Min(alpha.water) = -0.00146919  Max(alpha.water) = 1.00015
GAMG:  Solving for p_rgh, Initial residual = 0.0248499, Final residual = 2.77655e-08, No Iterations 9
time step continuity errors : sum local = 1.15928e-09, global = 4.62426e-10, cumulative = 8.10622e-07
GAMG:  Solving for p_rgh, Initial residual = 0.0247417, Final residual = 2.77737e-08, No Iterations 9
time step continuity errors : sum local = 1.16714e-09, global = -4.61001e-10, cumulative = 8.10161e-07
smoothSolver:  Solving for omega, Initial residual = 0.00278356, Final residual = 7.75965e-50, No Iterations 1
bounding omega, min: -2.23735e+37 max: 4.07259e+43 average: 4.27092e+37
smoothSolver:  Solving for k, Initial residual = 0.000398443, Final residual = 8.95695e-35, No Iterations 1
bounding k, min: -0.064058 max: 2.49716 average: 0.126326
ExecutionTime = 211.29 s  ClockTime = 212 s

forces forces write:
    Sum of forces
        Total    : (84.872 273.4 1303.86)
        Pressure : (42.9291 275.963 1305.04)
        Viscous  : (41.943 -2.56323 -1.18238)
    Sum of moments
        Total    : (-128.287 6620.48 -1585.25)
        Pressure : (-127.756 6646.93 -1607.06)
        Viscous  : (-0.530936 -26.4484 21.8038)


Courant Number mean: 0.0589399 max: 29.465
Interface Courant Number mean: 0.000226472 max: 15.3294
deltaT = 0.0111111
Time = 0.244444

PIMPLE: iteration 1
forces forces:
    rho: rho
    Not including porosity effects

Rigid-body motion of the hull
    Centre of rotation: (0 0 -0.0731101)
    Orientation: (0.999605 0 -0.0281015 0 1 0 0.0281015 0 0.999605)
    Linear velocity: (-1.73472e-18 0 -0.396907)
    Angular velocity: (0 0.178569 0)
GAMG:  Solving for pcorr, Initial residual = 1, Final residual = 0.000374472, No Iterations 3
time step continuity errors : sum local = 9.93916e-08, global = -2.31836e-10, cumulative = 8.09929e-07
smoothSolver:  Solving for alpha.water, Initial residual = 2.6893e-05, Final residual = 5.93558e-11, No Iterations 9
Phase-1 volume fraction = 0.795089  Min(alpha.water) = -8.9226e-08  Max(alpha.water) = 1.00012
Applying the previous iteration compression flux
MULES: Correcting alpha.water
MULES: Correcting alpha.water
MULES: Correcting alpha.water
MULES: Correcting alpha.water
Phase-1 volume fraction = 0.795089  Min(alpha.water) = -0.00371822  Max(alpha.water) = 1.00014
GAMG:  Solving for p_rgh, Initial residual = 0.0302892, Final residual = 2.81574e-08, No Iterations 9
time step continuity errors : sum local = 1.17378e-09, global = 3.21507e-10, cumulative = 8.1025e-07
GAMG:  Solving for p_rgh, Initial residual = 0.0239439, Final residual = 4.90345e-08, No Iterations 8
time step continuity errors : sum local = 2.09498e-09, global = 2.86758e-10, cumulative = 8.10537e-07
PIMPLE: iteration 2
smoothSolver:  Solving for alpha.water, Initial residual = 2.80416e-05, Final residual = 4.08857e-11, No Iterations 8
Phase-1 volume fraction = 0.795089  Min(alpha.water) = -6.50572e-06  Max(alpha.water) = 1.00001
Applying the previous iteration compression flux
MULES: Correcting alpha.water
MULES: Correcting alpha.water
MULES: Correcting alpha.water
MULES: Correcting alpha.water
Phase-1 volume fraction = 0.795089  Min(alpha.water) = -0.00259751  Max(alpha.water) = 1.00017
GAMG:  Solving for p_rgh, Initial residual = 0.0253089, Final residual = 4.34845e-08, No Iterations 8
time step continuity errors : sum local = 1.82853e-09, global = -1.3161e-10, cumulative = 8.10406e-07
GAMG:  Solving for p_rgh, Initial residual = 0.0250623, Final residual = 3.9707e-08, No Iterations 8
time step continuity errors : sum local = 1.67826e-09, global = -1.10741e-11, cumulative = 8.10395e-07
smoothSolver:  Solving for omega, Initial residual = 1.80588e-05, Final residual = 3.65932e-50, No Iterations 1
bounding omega, min: -7.45378e+34 max: 1.20676e+42 average: 1.76727e+36
smoothSolver:  Solving for k, Initial residual = 1.57021e-05, Final residual = 1.30718e-33, No Iterations 1
bounding k, min: -0.071031 max: 2.54611 average: 0.123321
ExecutionTime = 219.82 s  ClockTime = 220 s

forces forces write:
    Sum of forces
        Total    : (82.5897 261.363 1287.22)
        Pressure : (41.8874 263.882 1288.35)
        Viscous  : (40.7023 -2.51901 -1.12268)
    Sum of moments
        Total    : (-128.05 6525.65 -1506.71)
        Pressure : (-127.497 6551.25 -1528.01)
        Viscous  : (-0.553879 -25.5961 21.2978)


Courant Number mean: 0.0589736 max: 29.6005
Interface Courant Number mean: 0.00022592 max: 15.2927
deltaT = 0.0111111
Time = 0.255556

PIMPLE: iteration 1
forces forces:
    rho: rho
    Not including porosity effects

Rigid-body motion of the hull
    Centre of rotation: (0 0 -0.0774775)
    Orientation: (0.999547 0 -0.0300842 0 1 0 0.0300842 0 0.999547)
    Linear velocity: (0 0 -0.389237)
    Angular velocity: (0 0.178483 0)
GAMG:  Solving for pcorr, Initial residual = 1, Final residual = 0.00031525, No Iterations 3
time step continuity errors : sum local = 8.61004e-08, global = 2.20833e-09, cumulative = 8.12603e-07
smoothSolver:  Solving for alpha.water, Initial residual = 2.69362e-05, Final residual = 4.80906e-11, No Iterations 9
Phase-1 volume fraction = 0.795089  Min(alpha.water) = -5.11825e-06  Max(alpha.water) = 1.00003
Applying the previous iteration compression flux
MULES: Correcting alpha.water
MULES: Correcting alpha.water
MULES: Correcting alpha.water
MULES: Correcting alpha.water
Phase-1 volume fraction = 0.795089  Min(alpha.water) = -0.00187178  Max(alpha.water) = 1.00016
GAMG:  Solving for p_rgh, Initial residual = 0.0308283, Final residual = 4.60932e-08, No Iterations 8
time step continuity errors : sum local = 1.9339e-09, global = -1.88473e-10, cumulative = 8.12414e-07
GAMG:  Solving for p_rgh, Initial residual = 0.0241039, Final residual = 3.22362e-08, No Iterations 9
time step continuity errors : sum local = 1.3813e-09, global = -3.4684e-10, cumulative = 8.12068e-07
PIMPLE: iteration 2
smoothSolver:  Solving for alpha.water, Initial residual = 2.80382e-05, Final residual = 9.00261e-11, No Iterations 7
Phase-1 volume fraction = 0.795089  Min(alpha.water) = -4.76071e-05  Max(alpha.water) = 1.00001
Applying the previous iteration compression flux
MULES: Correcting alpha.water
MULES: Correcting alpha.water
MULES: Correcting alpha.water
MULES: Correcting alpha.water
[...]
GAMG:  Solving for p_rgh, Initial residual = 0.00420147, Final residual = 2.83637e-08, No Iterations 14
time step continuity errors : sum local = 1.06064e-11, global = 4.94203e-12, cumulative = 1.95205e-06
PIMPLE: iteration 2
smoothSolver:  Solving for alpha.water, Initial residual = 7.48603e-06, Final residual = 9.18273e-11, No Iterations 5
Phase-1 volume fraction = 0.795098  Min(alpha.water) = -4.87548e-07  Max(alpha.water) = 1.00001
Applying the previous iteration compression flux
MULES: Correcting alpha.water
MULES: Correcting alpha.water
MULES: Correcting alpha.water
MULES: Correcting alpha.water
Phase-1 volume fraction = 0.795098  Min(alpha.water) = -0.000834846  Max(alpha.water) = 1.00001
GAMG:  Solving for p_rgh, Initial residual = 0.00721272, Final residual = 4.19098e-08, No Iterations 11
time step continuity errors : sum local = 1.04619e-11, global = 4.43014e-12, cumulative = 1.95205e-06
GAMG:  Solving for p_rgh, Initial residual = 0.00333054, Final residual = 3.20602e-08, No Iterations 12
time step continuity errors : sum local = 8.09319e-12, global = 3.74102e-12, cumulative = 1.95206e-06
smoothSolver:  Solving for omega, Initial residual = 4.47084e-24, Final residual = 2.64392e-31, No Iterations 1
bounding omega, min: -9.28751e+20 max: 4.19523e+36 average: 1.07966e+31
smoothSolver:  Solving for k, Initial residual = 0.0868519, Final residual = 5.38829e-26, No Iterations 1
bounding k, min: -490898 max: 5.20728e+07 average: 160399
ExecutionTime = 7045.63 s  ClockTime = 7056 s

forces forces write:
    Sum of forces
        Total    : (2.66341e+07 -4.76383e+08 1.98679e+08)
        Pressure : (2.31388e+07 -4.89289e+08 2.04466e+08)
        Viscous  : (3.49534e+06 1.29058e+07 -5.78704e+06)
    Sum of moments
        Total    : (4.43004e+08 9.19486e+08 2.23867e+09)
        Pressure : (4.43422e+08 9.49837e+08 2.30215e+09)
        Viscous  : (-417641 -3.03515e+07 -6.34792e+07)


Courant Number mean: 0.000874201 max: 61.7456
Interface Courant Number mean: 8.81637e-05 max: 19.9605
deltaT = 2.12006e-06
Time = 2.06761

PIMPLE: iteration 1
forces forces:
    rho: rho
    Not including porosity effects

Rigid-body motion of the hull
    Centre of rotation: (0 0 0.567572)
    Orientation: (0.999992 0 0.0039579 0 1 0 -0.0039579 0 0.999992)
    Linear velocity: (7.10543e-15 0 11611.4)
    Angular velocity: (0 -1826.42 0)
GAMG:  Solving for pcorr, Initial residual = 1, Final residual = 0.000723809, No Iterations 7
time step continuity errors : sum local = 4.72376e-10, global = -6.85301e-11, cumulative = 1.95199e-06
smoothSolver:  Solving for alpha.water, Initial residual = 6.81757e-06, Final residual = 8.71842e-11, No Iterations 4
Phase-1 volume fraction = 0.795098  Min(alpha.water) = -6.21297e-07  Max(alpha.water) = 1.00001
Applying the previous iteration compression flux
MULES: Correcting alpha.water
MULES: Correcting alpha.water
MULES: Correcting alpha.water
MULES: Correcting alpha.water
Phase-1 volume fraction = 0.795098  Min(alpha.water) = -0.000348102  Max(alpha.water) = 1.00001
GAMG:  Solving for p_rgh, Initial residual = 0.01826, Final residual = 3.07951e-08, No Iterations 16
time step continuity errors : sum local = 4.21271e-12, global = -2.07645e-12, cumulative = 1.95199e-06
GAMG:  Solving for p_rgh, Initial residual = 0.00506442, Final residual = 3.31664e-08, No Iterations 14
time step continuity errors : sum local = 6.59869e-12, global = 3.28617e-12, cumulative = 1.95199e-06
PIMPLE: iteration 2
smoothSolver:  Solving for alpha.water, Initial residual = 5.60991e-06, Final residual = 7.28684e-11, No Iterations 4
Phase-1 volume fraction = 0.795098  Min(alpha.water) = -2.65593e-07  Max(alpha.water) = 1.00001
Applying the previous iteration compression flux
MULES: Correcting alpha.water
MULES: Correcting alpha.water
MULES: Correcting alpha.water
MULES: Correcting alpha.water
Phase-1 volume fraction = 0.795098  Min(alpha.water) = -0.00115643  Max(alpha.water) = 1.00001
GAMG:  Solving for p_rgh, Initial residual = 0.00777784, Final residual = 4.6816e-08, No Iterations 10
time step continuity errors : sum local = 6.59758e-12, global = 2.03655e-12, cumulative = 1.95199e-06
GAMG:  Solving for p_rgh, Initial residual = 0.00358365, Final residual = 3.89124e-08, No Iterations 11
time step continuity errors : sum local = 5.5665e-12, global = 2.41227e-12, cumulative = 1.952e-06
smoothSolver:  Solving for omega, Initial residual = 1.65182e-16, Final residual = 4.30929e-45, No Iterations 1
bounding omega, min: -2.13883e+31 max: 4.54966e+39 average: 5.46571e+33
smoothSolver:  Solving for k, Initial residual = 0.1843, Final residual = 1.41602e-28, No Iterations 1
bounding k, min: -1.19365e+06 max: 6.03447e+07 average: 146987
ExecutionTime = 7055.02 s  ClockTime = 7065 s

forces forces write:
    Sum of forces
        Total    : (2.58283e+07 -4.46737e+08 1.57049e+08)
        Pressure : (2.27295e+07 -4.58386e+08 1.62323e+08)
        Viscous  : (3.09874e+06 1.16496e+07 -5.2741e+06)
    Sum of moments
        Total    : (4.23146e+08 7.38134e+08 2.09662e+09)
        Pressure : (4.23741e+08 7.65846e+08 2.15402e+09)
        Viscous  : (-594553 -2.77121e+07 -5.74064e+07)


Courant Number mean: 0.000660179 max: 44.5981
Interface Courant Number mean: 6.48665e-05 max: 13.5186
deltaT = 2.35239e-06
Time = 2.06761

PIMPLE: iteration 1
forces forces:
    rho: rho
    Not including porosity effects

Rigid-body motion of the hull
    Centre of rotation: (0 0 0.594906)
    Orientation: (0.999966 0 0.00825724 0 1 0 -0.00825724 0 0.999966)
    Linear velocity: (1.42109e-14 0 11628.4)
    Angular velocity: (0 -1828.95 0)
GAMG:  Solving for pcorr, Initial residual = 1, Final residual = 0.00088317, No Iterations 7
time step continuity errors : sum local = 6.76206e-10, global = -1.27799e-10, cumulative = 1.95187e-06
smoothSolver:  Solving for alpha.water, Initial residual = 7.53554e-06, Final residual = 4.47028e-11, No Iterations 5
Phase-1 volume fraction = 0.795098  Min(alpha.water) = -2.3264e-07  Max(alpha.water) = 1.00001
Applying the previous iteration compression flux
MULES: Correcting alpha.water
MULES: Correcting alpha.water
MULES: Correcting alpha.water
MULES: Correcting alpha.water
Phase-1 volume fraction = 0.795098  Min(alpha.water) = -0.00132302  Max(alpha.water) = 1.00001
GAMG:  Solving for p_rgh, Initial residual = 0.0145358, Final residual = 4.20214e-08, No Iterations 15
time step continuity errors : sum local = 7.00453e-12, global = -3.3026e-12, cumulative = 1.95186e-06
GAMG:  Solving for p_rgh, Initial residual = 0.00514387, Final residual = 3.44129e-08, No Iterations 14
time step continuity errors : sum local = 7.70724e-12, global = 3.89926e-12, cumulative = 1.95187e-06
PIMPLE: iteration 2
smoothSolver:  Solving for alpha.water, Initial residual = 6.17289e-06, Final residual = 8.913e-11, No Iterations 4
Phase-1 volume fraction = 0.795098  Min(alpha.water) = -2.10855e-07  Max(alpha.water) = 1.00001
Applying the previous iteration compression flux
MULES: Correcting alpha.water
MULES: Correcting alpha.water
MULES: Correcting alpha.water
MULES: Correcting alpha.water
Phase-1 volume fraction = 0.795098  Min(alpha.water) = -0.000837861  Max(alpha.water) = 1.00001
GAMG:  Solving for p_rgh, Initial residual = 0.00866892, Final residual = 3.02613e-08, No Iterations 11
time step continuity errors : sum local = 4.50907e-12, global = 1.22807e-12, cumulative = 1.95187e-06
GAMG:  Solving for p_rgh, Initial residual = 0.00393112, Final residual = 4.11818e-08, No Iterations 12
time step continuity errors : sum local = 6.27182e-12, global = 3.12111e-12, cumulative = 1.95187e-06
smoothSolver:  Solving for omega, Initial residual = 4.90722e-19, Final residual = 9.71964e-47, No Iterations 1
bounding omega, min: -1.03717e+34 max: 9.08711e+44 average: 1.1277e+39
smoothSolver:  Solving for k, Initial residual = 1.42816e-06, Final residual = 1.33346e-34, No Iterations 1
bounding k, min: -896047 max: 6.01784e+07 average: 123348
ExecutionTime = 7064.41 s  ClockTime = 7075 s

forces forces write:
    Sum of forces
        Total    : (2.51673e+07 -4.49029e+08 1.26643e+08)
        Pressure : (2.24243e+07 -4.59478e+08 1.31384e+08)
        Viscous  : (2.74301e+06 1.04494e+07 -4.7415e+06)
    Sum of moments
        Total    : (4.33524e+08 5.92435e+08 2.11057e+09)
        Pressure : (4.34286e+08 6.17424e+08 2.16219e+09)
        Viscous  : (-761740 -2.49895e+07 -5.16228e+07)


Courant Number mean: 0.000735981 max: 47.8194
Interface Courant Number mean: 7.16916e-05 max: 12.8552
deltaT = 2.62693e-06
Time = 2.06761

PIMPLE: iteration 1
forces forces:
    rho: rho
    Not including porosity effects

Rigid-body motion of the hull
    Centre of rotation: (0 0 0.625474)
    Orientation: (0.999915 0 0.0130646 0 1 0 -0.0130646 0 0.999915)
    Linear velocity: (0 0 11644.3)
    Angular velocity: (0 -1831.3 0)
GAMG:  Solving for pcorr, Initial residual = 1, Final residual = 0.000934304, No Iterations 7
time step continuity errors : sum local = 8.53568e-10, global = -1.32556e-10, cumulative = 1.95174e-06
smoothSolver:  Solving for alpha.water, Initial residual = 8.37083e-06, Final residual = 6.10289e-11, No Iterations 5
Phase-1 volume fraction = 0.795098  Min(alpha.water) = -8.29092e-08  Max(alpha.water) = 1.00001
Applying the previous iteration compression flux
MULES: Correcting alpha.water
MULES: Correcting alpha.water
MULES: Correcting alpha.water
MULES: Correcting alpha.water
Phase-1 volume fraction = 0.795098  Min(alpha.water) = -0.00056135  Max(alpha.water) = 1.00001
GAMG:  Solving for p_rgh, Initial residual = 0.0163681, Final residual = 2.64208e-08, No Iterations 16
time step continuity errors : sum local = 4.70082e-12, global = -2.38498e-12, cumulative = 1.95174e-06
GAMG:  Solving for p_rgh, Initial residual = 0.00554515, Final residual = 4.0681e-08, No Iterations 14
time step continuity errors : sum local = 1.05095e-11, global = 5.37294e-12, cumulative = 1.95174e-06
PIMPLE: iteration 2
smoothSolver:  Solving for alpha.water, Initial residual = 6.82983e-06, Final residual = 5.58611e-11, No Iterations 5
Phase-1 volume fraction = 0.795098  Min(alpha.water) = -8.4201e-08  Max(alpha.water) = 1.00001
Applying the previous iteration compression flux
MULES: Correcting alpha.water
MULES: Correcting alpha.water
MULES: Correcting alpha.water
MULES: Correcting alpha.water
Phase-1 volume fraction = 0.795098  Min(alpha.water) = -0.000648107  Max(alpha.water) = 1.00001
GAMG:  Solving for p_rgh, Initial residual = 0.0102323, Final residual = 3.58085e-08, No Iterations 11
time step continuity errors : sum local = 5.57672e-12, global = 1.48133e-12, cumulative = 1.95174e-06
GAMG:  Solving for p_rgh, Initial residual = 0.00455366, Final residual = 4.97488e-08, No Iterations 12
time step continuity errors : sum local = 8.04736e-12, global = 3.97447e-12, cumulative = 1.95175e-06
smoothSolver:  Solving for omega, Initial residual = 3.63279e-10, Final residual = 7.87995e-49, No Iterations 1
bounding omega, min: -1.78273e+34 max: 1.40559e+46 average: 2.20709e+40
smoothSolver:  Solving for k, Initial residual = 0.000770098, Final residual = 1.43386e-35, No Iterations 1
bounding k, min: -2.11439e+06 max: 5.97045e+07 average: 113060
ExecutionTime = 7073.87 s  ClockTime = 7084 s

forces forces write:
    Sum of forces
        Total    : (2.66714e+07 -4.51148e+08 6.00166e+07)
        Pressure : (2.42625e+07 -4.60443e+08 6.42481e+07)
        Viscous  : (2.40889e+06 9.29483e+06 -4.23157e+06)
    Sum of moments
        Total    : (4.45706e+08 2.93339e+08 2.12242e+09)
        Pressure : (4.46605e+08 3.15714e+08 2.16848e+09)
        Viscous  : (-898764 -2.2375e+07 -4.60607e+07)


Courant Number mean: 0.000826095 max: 52.0518
Interface Courant Number mean: 7.94609e-05 max: 14.2423
deltaT = 2.76674e-06
Time = 2.06762

PIMPLE: iteration 1
forces forces:
    rho: rho
    Not including porosity effects

Rigid-body motion of the hull
    Centre of rotation: (0 0 0.65771)
    Orientation: (0.999836 0 0.0181335 0 1 0 -0.0181335 0 0.999836)
    Linear velocity: (2.84217e-14 0 11658.1)
    Angular velocity: (0 -1833.33 0)
GAMG:  Solving for pcorr, Initial residual = 1, Final residual = 0.000531071, No Iterations 8
time step continuity errors : sum local = 5.32743e-10, global = -8.77709e-11, cumulative = 1.95166e-06
smoothSolver:  Solving for alpha.water, Initial residual = 8.7308e-06, Final residual = 7.04655e-11, No Iterations 5
Phase-1 volume fraction = 0.795098  Min(alpha.water) = -8.7947e-07  Max(alpha.water) = 1.00001
Applying the previous iteration compression flux
MULES: Correcting alpha.water
MULES: Correcting alpha.water
MULES: Correcting alpha.water
MULES: Correcting alpha.water
Phase-1 volume fraction = 0.795098  Min(alpha.water) = -0.000809311  Max(alpha.water) = 1.00001
GAMG:  Solving for p_rgh, Initial residual = 0.0190567, Final residual = 3.04597e-08, No Iterations 16
time step continuity errors : sum local = 5.04041e-12, global = -2.38487e-12, cumulative = 1.95166e-06
GAMG:  Solving for p_rgh, Initial residual = 0.00612642, Final residual = 3.81227e-08, No Iterations 14
time step continuity errors : sum local = 1.01556e-11, global = 4.76174e-12, cumulative = 1.95166e-06
PIMPLE: iteration 2
smoothSolver:  Solving for alpha.water, Initial residual = 7.10847e-06, Final residual = 5.86356e-11, No Iterations 5
Phase-1 volume fraction = 0.795098  Min(alpha.water) = -9.06064e-07  Max(alpha.water) = 1.00001
Applying the previous iteration compression flux
MULES: Correcting alpha.water
MULES: Correcting alpha.water
MULES: Correcting alpha.water
MULES: Correcting alpha.water
Phase-1 volume fraction = 0.795098  Min(alpha.water) = -0.00163615  Max(alpha.water) = 1.00001
GAMG:  Solving for p_rgh, Initial residual = 0.0123078, Final residual = 2.8587e-08, No Iterations 12
time step continuity errors : sum local = 4.16449e-12, global = 7.4248e-13, cumulative = 1.95166e-06
GAMG:  Solving for p_rgh, Initial residual = 0.0053363, Final residual = 3.26155e-08, No Iterations 13
time step continuity errors : sum local = 5.02219e-12, global = 2.16659e-12, cumulative = 1.95167e-06
smoothSolver:  Solving for omega, Initial residual = 1.80882e-05, Final residual = 6.98324e-37, No Iterations 1
bounding omega, min: -7.14469e+36 max: 1.01339e+57 average: 1.7697e+51
smoothSolver:  Solving for k, Initial residual = 0.0712933, Final residual = 5.90538e-46, No Iterations 1
bounding k, min: -779561 max: 6.64552e+07 average: 91159.3
ExecutionTime = 7083.58 s  ClockTime = 7094 s

forces forces write:
    Sum of forces
        Total    : (2.77301e+07 -4.49035e+08 3.08483e+06)
        Pressure : (2.56315e+07 -4.5728e+08 6.84238e+06)
        Viscous  : (2.09859e+06 8.24496e+06 -3.75755e+06)
    Sum of moments
        Total    : (4.53867e+08 3.64956e+07 2.1151e+09)
        Pressure : (4.54875e+08 5.64246e+07 2.15611e+09)
        Viscous  : (-1.00761e+06 -1.9929e+07 -4.10063e+07)


Courant Number mean: 0.000874915 max: 53.5291
Interface Courant Number mean: 8.36343e-05 max: 12.9298
deltaT = 3.08779e-06
Time = 2.06762

PIMPLE: iteration 1
forces forces:
    rho: rho
    Not including porosity effects

Rigid-body motion of the hull
    Centre of rotation: (0 0 0.693727)
    Orientation: (0.999717 0 0.0237959 0 1 0 -0.0237959 0 0.999717)
    Linear velocity: (-5.68434e-14 0 11670.5)
    Angular velocity: (0 -1835.09 0)
GAMG:  Solving for pcorr, Initial residual = 1, Final residual = 0.000821222, No Iterations 8
time step continuity errors : sum local = 9.88543e-10, global = -1.96907e-10, cumulative = 1.95147e-06
smoothSolver:  Solving for alpha.water, Initial residual = 9.63764e-06, Final residual = 9.08479e-11, No Iterations 5
Phase-1 volume fraction = 0.795098  Min(alpha.water) = -2.12901e-06  Max(alpha.water) = 1.00001
Applying the previous iteration compression flux
MULES: Correcting alpha.water
MULES: Correcting alpha.water
MULES: Correcting alpha.water
MULES: Correcting alpha.water
Phase-1 volume fraction = 0.795098  Min(alpha.water) = -0.00397155  Max(alpha.water) = 1.00001
[4] #0  Foam::error::printStack(Foam::Ostream&) at ??:?
[4] #1  Foam::sigFpe::sigHandler(int) at ??:?
[4] #2  ? in /lib/x86_64-linux-gnu/libpthread.so.0
[4] #3  Foam::GAMGSolver::scale(Foam::Field<double>&, Foam::Field<double>&, Foam::lduMatrix const&, Foam::FieldField<Foam::Field, double> const&, Foam::UPtrList<Foam::lduInterfaceField const> const&, Foam::Field<double> const&, unsigned char) const at ??:?
[4] #4  Foam::GAMGSolver::Vcycle(Foam::PtrList<Foam::lduMatrix::smoother> const&, Foam::Field<double>&, Foam::Field<double> const&, Foam::Field<double>&, Foam::Field<double>&, Foam::Field<double>&, Foam::Field<double>&, Foam::Field<double>&, Foam::PtrList<Foam::Field<double> >&, Foam::PtrList<Foam::Field<double> >&, unsigned char) const at ??:?
[4] #5  Foam::GAMGSolver::solve(Foam::Field<double>&, Foam::Field<double> const&, unsigned char) const at ??:?
[4] #6  Foam::fvMatrix<double>::solveSegregated(Foam::dictionary const&) at ??:?
[4] #7  Foam::fvMatrix<double>::solveSegregatedOrCoupled(Foam::dictionary const&) at ??:?
[4] #8  Foam::fvMesh::solve(Foam::fvMatrix<double>&, Foam::dictionary const&) const at ??:?
[4] #9  ? in ~/OpenFOAM/OpenFOAM-v2012/platforms/linux64GccDPInt32Opt/bin/interFoam
[4] #10  __libc_start_main in /lib/x86_64-linux-gnu/libc.so.6
[4] #11  ? in ~/OpenFOAM/OpenFOAM-v2012/platforms/linux64GccDPInt32Opt/bin/interFoam
[federico-pc:18980] *** Process received signal ***
[federico-pc:18980] Signal: Floating point exception (8)
[federico-pc:18980] Signal code:  (-6)
[federico-pc:18980] Failing at address: 0x3e800004a24
[federico-pc:18980] [ 0] /lib/x86_64-linux-gnu/libpthread.so.0(+0x153c0)[0x7fca8fd483c0]
[federico-pc:18980] [ 1] /lib/x86_64-linux-gnu/libpthread.so.0(raise+0xcb)[0x7fca8fd4824b]
[federico-pc:18980] [ 2] /lib/x86_64-linux-gnu/libpthread.so.0(+0x153c0)[0x7fca8fd483c0]
[federico-pc:18980] [ 3] /home/federico/OpenFOAM/OpenFOAM-v2012/platforms/linux64GccDPInt32Opt/lib/libOpenFOAM.so(_ZNK4Foam10GAMGSolver5scaleERNS_5FieldIdEES3_RKNS_9lduMatrixERKNS_10FieldFieldIS1_dEERKNS_8UPtrListIKNS_17lduInterfaceFieldEEERKS2_h+0xf2)[0x7fca90745532]
[federico-pc:18980] [ 4] /home/federico/OpenFOAM/OpenFOAM-v2012/platforms/linux64GccDPInt32Opt/lib/libOpenFOAM.so(_ZNK4Foam10GAMGSolver6VcycleERKNS_7PtrListINS_9lduMatrix8smootherEEERNS_5FieldIdEERKS8_S9_S9_S9_S9_S9_RNS1_IS8_EESD_h+0x972)[0x7fca90747332]
[federico-pc:18980] [ 5] /home/federico/OpenFOAM/OpenFOAM-v2012/platforms/linux64GccDPInt32Opt/lib/libOpenFOAM.so(_ZNK4Foam10GAMGSolver5solveERNS_5FieldIdEERKS2_h+0x625)[0x7fca90749535]
[federico-pc:18980] [ 6] /home/federico/OpenFOAM/OpenFOAM-v2012/platforms/linux64GccDPInt32Opt/lib/libfiniteVolume.so(_ZN4Foam8fvMatrixIdE15solveSegregatedERKNS_10dictionaryE+0x191)[0x7fca937df741]
[federico-pc:18980] [ 7] /home/federico/OpenFOAM/OpenFOAM-v2012/platforms/linux64GccDPInt32Opt/lib/libfiniteVolume.so(_ZN4Foam8fvMatrixIdE24solveSegregatedOrCoupledERKNS_10dictionaryE+0x413)[0x7fca92fed8a3]
[federico-pc:18980] [ 8] /home/federico/OpenFOAM/OpenFOAM-v2012/platforms/linux64GccDPInt32Opt/lib/libfiniteVolume.so(_ZNK4Foam6fvMesh5solveERNS_8fvMatrixIdEERKNS_10dictionaryE+0x28)[0x7fca92f87cf8]
[federico-pc:18980] [ 9] interFoam(+0x5727f)[0x55d8723d627f]
[federico-pc:18980] [10] /lib/x86_64-linux-gnu/libc.so.6(__libc_start_main+0xf3)[0x7fca8fb680b3]
[federico-pc:18980] [11] interFoam(+0x5d1be)[0x55d8723dc1be]
[federico-pc:18980] *** End of error message ***
--------------------------------------------------------------------------
Primary job  terminated normally, but 1 process returned
a non-zero exit code. Per user-direction, the job has been aborted.
--------------------------------------------------------------------------
--------------------------------------------------------------------------
mpirun noticed that process rank 4 with PID 0 on node federico-pc exited on signal 8 (Floating point exception).
--------------------------------------------------------------------------
