/*---------------------------------------------------------------------------*\
| =========                 |                                                 |
| \\      /  F ield         | OpenFOAM: The Open Source CFD Toolbox           |
|  \\    /   O peration     | Version:  v2012                                 |
|   \\  /    A nd           | Website:  www.openfoam.com                      |
|    \\/     M anipulation  |                                                 |
\*---------------------------------------------------------------------------*/
Build  : _7bdb509494-20201222 OPENFOAM=2012 patch=210414
Arch   : "LSB;label=32;scalar=64"
Exec   : refineMesh -overwrite
Date   : May 28 2021
Time   : 17:45:43
Host   : debian
PID    : 9498
I/O    : uncollated
Case   : /home/lorenzo/OpenFOAM/lorenzo-v2012/run/convergenceStudy/0
nProcs : 1
trapFpe: Floating point exception trapping enabled (FOAM_SIGFPE).
fileModificationChecking : Monitoring run-time modified files using timeStampMaster (fileModificationSkew 5, maxFileModificationPolls 20)
allowSystemOperations : Allowing user-supplied system call operations

// * * * * * * * * * * * * * * * * * * * * * * * * * * * * * * * * * * * * * //
Create time

Create polyMesh for time = 0

Mesh edge statistics:
    x aligned :  number:437840	minLen:0.125	maxLen:1
    y aligned :  number:426619	minLen:0.125	maxLen:1
    z aligned :  number:440826	minLen:0.0186667	maxLen:0.933497
    other     :  number:0	minLen:1e+15	maxLen:-1e+15

Refining according to refineMeshDict

Read 104720 cells from cellSet "constant/polyMesh/sets/c0"

Global Coordinate system:
     normal : (0 0 1)
     tan1   : (1 0 0)
     tan2   : (0 1 0)

Writing refined cells (418880) to cellSet "constant/polyMesh/sets/refinedCells"

Writing map from new to old cell to "/home/lorenzo/OpenFOAM/lorenzo-v2012/run/convergenceStudy/0/0/polyMesh/cellMap"

Mesh edge statistics:
    x aligned :  number:762404	minLen:0.0625	maxLen:1
    y aligned :  number:745851	minLen:0.0625	maxLen:1
    z aligned :  number:762976	minLen:0.0186667	maxLen:0.933497
    other     :  number:0	minLen:1e+15	maxLen:-1e+15

End

