/*---------------------------------------------------------------------------*\
| =========                 |                                                 |
| \\      /  F ield         | OpenFOAM: The Open Source CFD Toolbox           |
|  \\    /   O peration     | Version:  v2012                                 |
|   \\  /    A nd           | Website:  www.openfoam.com                      |
|    \\/     M anipulation  |                                                 |
\*---------------------------------------------------------------------------*/
Build  : _7bdb509494-20201222 OPENFOAM=2012
Arch   : "LSB;label=32;scalar=64"
Exec   : refineMesh -dict system/refineMeshDict -overwrite
Date   : May 05 2021
Time   : 14:55:08
Host   : debian
PID    : 29593
I/O    : uncollated
Case   : /home/lorenzo/OpenFOAM/lorenzo-v2012/run/DTCHull.run
nProcs : 1
trapFpe: Floating point exception trapping enabled (FOAM_SIGFPE).
fileModificationChecking : Monitoring run-time modified files using timeStampMaster (fileModificationSkew 5, maxFileModificationPolls 20)
allowSystemOperations : Allowing user-supplied system call operations

// * * * * * * * * * * * * * * * * * * * * * * * * * * * * * * * * * * * * * //
Create time

Create polyMesh for time = 0

Mesh edge statistics:
    x aligned :  number:259228	minLen:0.25	maxLen:1
    y aligned :  number:250723	minLen:0.25	maxLen:1
    z aligned :  number:262378	minLen:0.014	maxLen:0.933497
    other     :  number:0	minLen:1e+15	maxLen:-1e+15

Refining according to "system/refineMeshDict"

Read 25080 cells from cellSet "constant/polyMesh/sets/c0"

Global Coordinate system:
     normal : (0 0 1)
     tan1   : (1 0 0)
     tan2   : (0 1 0)

Writing refined cells (100320) to cellSet "constant/polyMesh/sets/refinedCells"

Writing map from new to old cell to "/home/lorenzo/OpenFOAM/lorenzo-v2012/run/DTCHull.run/0/polyMesh/cellMap"

Mesh edge statistics:
    x aligned :  number:339484	minLen:0.125	maxLen:1
    y aligned :  number:327331	minLen:0.125	maxLen:1
    z aligned :  number:342368	minLen:0.014	maxLen:0.933497
    other     :  number:0	minLen:1e+15	maxLen:-1e+15

End

