/*---------------------------------------------------------------------------*\
| =========                 |                                                 |
| \\      /  F ield         | OpenFOAM: The Open Source CFD Toolbox           |
|  \\    /   O peration     | Version:  v2012                                 |
|   \\  /    A nd           | Website:  www.openfoam.com                      |
|    \\/     M anipulation  |                                                 |
\*---------------------------------------------------------------------------*/
Build  : _7bdb509494-20201222 OPENFOAM=2012
Arch   : "LSB;label=32;scalar=64"
Exec   : setExprBoundaryFields
Date   : May 10 2021
Time   : 12:28:02
Host   : debian
PID    : 5286
I/O    : uncollated
Case   : /home/lorenzo/OpenFOAM/lorenzo-v2012/run/convergenceStudy/3
nProcs : 1
fileModificationChecking : Monitoring run-time modified files using timeStampMaster (fileModificationSkew 5, maxFileModificationPolls 20)
allowSystemOperations : Allowing user-supplied system call operations

// * * * * * * * * * * * * * * * * * * * * * * * * * * * * * * * * * * * * * //
Create time

Create mesh for time = 0



--> FOAM FATAL IO ERROR: (openfoam-2012)
Cannot open include file "/home/lorenzo/OpenFOAM/lorenzo-v2012/run/convergenceStudy/3/system/../data" while reading dictionary "/home/lorenzo/OpenFOAM/lorenzo-v2012/run/convergenceStudy/3/system/setExprBoundaryFieldsDict"

file: /home/lorenzo/OpenFOAM/lorenzo-v2012/run/convergenceStudy/3/system/setExprBoundaryFieldsDict at line 17.

    From static bool Foam::functionEntries::includeEntry::execute(bool, Foam::dictionary&, Foam::Istream&)
    in file db/dictionary/functionEntries/includeEntry/includeEntry.C at line 170.

FOAM exiting

