/*---------------------------------------------------------------------------*\
| =========                 |                                                 |
| \\      /  F ield         | OpenFOAM: The Open Source CFD Toolbox           |
|  \\    /   O peration     | Version:  v2012                                 |
|   \\  /    A nd           | Website:  www.openfoam.com                      |
|    \\/     M anipulation  |                                                 |
\*---------------------------------------------------------------------------*/
Build  : _7bdb509494-20201222 OPENFOAM=2012
Arch   : "LSB;label=32;scalar=64"
Exec   : topoSet -dict system/topoSetDict.4
Date   : May 10 2021
Time   : 11:54:09
Host   : debian
PID    : 4955
I/O    : uncollated
Case   : /home/lorenzo/OpenFOAM/lorenzo-v2012/run/convergenceStudy/3
nProcs : 1
trapFpe: Floating point exception trapping enabled (FOAM_SIGFPE).
fileModificationChecking : Monitoring run-time modified files using timeStampMaster (fileModificationSkew 5, maxFileModificationPolls 20)
allowSystemOperations : Allowing user-supplied system call operations

// * * * * * * * * * * * * * * * * * * * * * * * * * * * * * * * * * * * * * //
Create time

Create polyMesh for time = 0

Reading topoSetDict.4

Time = 0
    mesh not changed.
Created cellSet c0
    Applying source boxToCell
    Adding cells with centre within boxes 1((-6 -2 -1) (3 0 1))
    cellSet c0 now size 133632

End

