/*---------------------------------------------------------------------------*\
| =========                 |                                                 |
| \\      /  F ield         | OpenFOAM: The Open Source CFD Toolbox           |
|  \\    /   O peration     | Version:  v2012                                 |
|   \\  /    A nd           | Website:  www.openfoam.com                      |
|    \\/     M anipulation  |                                                 |
\*---------------------------------------------------------------------------*/
Build  : _7bdb509494-20201222 OPENFOAM=2012
Arch   : "LSB;label=32;scalar=64"
Exec   : surfaceFeatureExtract
Date   : May 10 2021
Time   : 13:20:12
Host   : debian
PID    : 8454
I/O    : uncollated
Case   : /home/lorenzo/OpenFOAM/lorenzo-v2012/run/convergenceStudy/4
nProcs : 1
trapFpe: Floating point exception trapping enabled (FOAM_SIGFPE).
fileModificationChecking : Monitoring run-time modified files using timeStampMaster (fileModificationSkew 5, maxFileModificationPolls 20)
allowSystemOperations : Allowing user-supplied system call operations

// * * * * * * * * * * * * * * * * * * * * * * * * * * * * * * * * * * * * * //
Create time


Note: Feature line extraction only valid on closed manifold surfaces

Reading surfaceFeatureExtractDict

Surfaces     : hull470.stl
Output       : hull470
Load options : offset
Write options: writeObj=no writeVTK=off

Statistics:
Triangles    : 3484 in 1 region(s)
Vertices     : 1744
Bounding Box : (-4.68694 -0.813551 -0.255964) (2.36863e-11 0.813403 0.327422)

Constructing feature set from included angle 180
Selecting edges based purely on geometric tests: no

Initial Feature set:
    points : 1744
    edges  : 5226
    of which
        region edges   : 0
        external edges : 3195
        internal edges : 2031

Final Feature set:
    points : 1744
    of which
        convex             : 155
        concave            : 31
        mixed              : 1558
        non-feature        : 0
    edges  : 5226
    of which
        external edges     : 2964
        internal edges     : 1777
        flat edges         : 485
        open edges         : 0
        multiply connected : 0

Writing extendedFeatureEdgeMesh to "/home/lorenzo/OpenFOAM/lorenzo-v2012/run/convergenceStudy/4/constant/extendedFeatureEdgeMesh/hull470.extendedFeatureEdgeMesh"

Writing featureEdgeMesh to "/home/lorenzo/OpenFOAM/lorenzo-v2012/run/convergenceStudy/4/constant/triSurface/hull470.eMesh"
ExecutionTime = 0.11 s  ClockTime = 0 s

End

